@<TRIPOS>MOLECULE
*****
 33 36 0 0 0
SMALL
GASTEIGER

@<TRIPOS>ATOM
      1 C          62.2593   88.4544   11.2008 C.ar    1  UNL1        0.0284
      2 C          63.0560   88.3021   12.4625 C.ar    1  UNL1        0.0027
      3 C          63.8202   89.4697   13.0126 C.ar    1  UNL1        0.0339
      4 C          63.7878   90.7897   12.3008 C.ar    1  UNL1        0.1311
      5 N          62.9910   90.9420   11.0390 N.ar    1  UNL1       -0.2035
      6 C          62.2268   89.7744   10.4890 C.ar    1  UNL1        0.2196
      7 F          61.4302   89.9268    9.2272 F       1  UNL1       -0.1835
      8 N          64.5520   91.9574   12.8509 N.pl3   1  UNL1       -0.3144
      9 H          64.0978   92.6177   13.4226 H       1  UNL1        0.1485
     10 C          66.0083   92.1189   12.5298 C.3     1  UNL1        0.1169
     11 C          66.4406   93.1000   11.4808 C.ar    1  UNL1        0.0166
     12 C          67.1892   92.6237   10.2713 C.ar    1  UNL1        0.0014
     13 C          67.6215   93.6049    9.2223 C.ar    1  UNL1        0.0305
     14 C          67.3053   95.0624    9.3827 C.ar    1  UNL1        0.1383
     15 CL         67.7377   96.0435    8.3337 Cl      1  UNL1       -0.0613
     16 N          66.5568   95.5387   10.5922 N.ar    1  UNL1       -0.2327
     17 C          66.1245   94.5575   11.6412 C.ar    1  UNL1        0.0972
     18 C          61.4950   87.2868   10.6507 C.3     1  UNL1        0.0603
     19 C          63.7802   83.5001   12.6893 C.2     1  UNL1        0.0934
     20 C          64.3869   82.5732   11.6780 C.2     1  UNL1        0.2476
     21 N          64.2502   82.8676   10.2136 N.2     1  UNL1       -0.0297
     22 C          63.5067   84.0889    9.7604 C.2     1  UNL1        0.3717
     23 N          63.2108   84.6348    8.3949 N.2     1  UNL1       -0.0311
     24 C          62.4213   85.8992    8.5622 C.2     1  UNL1        0.2319
     25 C          62.2291   86.1347   10.0311 C.2     1  UNL1        0.0329
     26 C          62.9000   85.0159   10.7716 C.2     1  UNL1        0.0720
     27 C          63.0367   84.7215   12.2360 C.3     1  UNL1        0.0804
     28 N          63.9170   83.2057   14.1537 N.pl3   1  UNL1       -0.2187
     29 H          64.0291   82.2771   14.4607 H       1  UNL1        0.1731
     30 C          63.8489   85.4467   16.1471 C.3     1  UNL1        0.1996
     31 S          63.8830   84.3262   15.1503 S.O2    1  UNL1        0.0557
     32 O          62.5520   83.8443   15.6467 O.2     1  UNL1       -0.1544
     33 O          65.2139   84.8081   14.6540 O.2     1  UNL1       -0.1544
@<TRIPOS>BOND
     1    30    31    1
     2    31    32    2
     3    31    33    2
     4    31    28    1
     5    28    19    1
     6    19    20    2
     7    20    21    1
     8    21    22    2
     9    22    23    1
    10    23    24    2
    11    24    25    1
    12    25    18    1
    13    18     1    1
    14     1     2   ar
    15     2     3   ar
    16     3     4   ar
    17     4     8    1
    18     8    10    1
    19    10    11    1
    20    11    12   ar
    21    12    13   ar
    22    13    14   ar
    23    14    15    1
    24    14    16   ar
    25    16    17   ar
    26     4     5   ar
    27     5     6   ar
    28     6     7    1
    29    25    26    2
    30    26    27    1
    31    27    19    1
    32    26    22    1
    33     6     1   ar
    34    17    11   ar
    35    28    29    1
    36     8     9    1
@<TRIPOS>MOLECULE
*****
 33 36 0 0 0
SMALL
GASTEIGER

@<TRIPOS>ATOM
      1 C          63.7196   88.3325   15.5670 C.ar    1  UNL1        0.0284
      2 C          64.3275   87.7443   14.3282 C.ar    1  UNL1        0.0027
      3 C          64.5447   86.2634   14.2299 C.ar    1  UNL1        0.0339
      4 C          64.1541   85.3706   15.3703 C.ar    1  UNL1        0.1311
      5 N          63.5463   85.9589   16.6090 N.ar    1  UNL1       -0.2035
      6 C          63.3290   87.4398   16.7074 C.ar    1  UNL1        0.2196
      7 F          62.7212   88.0280   17.9462 F       1  UNL1       -0.1835
      8 N          64.3714   83.8897   15.2719 N.pl3   1  UNL1       -0.3144
      9 H          65.0528   83.4538   15.8331 H       1  UNL1        0.1485
     10 C          63.5505   83.0730   14.3185 C.3     1  UNL1        0.1169
     11 C          63.4793   83.4576   12.8704 C.ar    1  UNL1        0.0166
     12 C          64.4056   82.8192   11.8783 C.ar    1  UNL1        0.0014
     13 C          64.3344   83.2038   10.4302 C.ar    1  UNL1        0.0305
     14 C          63.3368   84.2269    9.9741 C.ar    1  UNL1        0.1383
     15 CL         63.2656   84.6115    8.5261 Cl      1  UNL1       -0.0613
     16 N          62.4104   84.8654   10.9663 N.ar    1  UNL1       -0.2327
     17 C          62.4816   84.4807   12.4143 C.ar    1  UNL1        0.0972
     18 C          63.5024   89.8134   15.6653 C.3     1  UNL1        0.0603
     19 C          62.9652   90.8821   10.9446 C.2     1  UNL1        0.0934
     20 C          63.9704   91.8824   10.4561 C.2     1  UNL1        0.2476
     21 N          64.9952   92.4382   11.4000 N.2     1  UNL1       -0.0297
     22 C          65.0147   91.9936   12.8324 C.2     1  UNL1        0.3717
     23 N          65.8987   92.3637   13.9863 N.2     1  UNL1       -0.0311
     24 C          65.4398   91.5920   15.1880 C.2     1  UNL1        0.2319
     25 C          64.2722   90.7450   14.7768 C.2     1  UNL1        0.0329
     26 C          64.0094   90.9932   13.3209 C.2     1  UNL1        0.0720
     27 C          62.9847   90.4375   12.3770 C.3     1  UNL1        0.0804
     28 N          61.9404   90.3263   10.0006 N.pl3   1  UNL1       -0.2187
     29 H          61.8027   90.7460    9.1208 H       1  UNL1        0.1731
     30 C          60.3103   87.9360   10.7939 C.3     1  UNL1        0.1996
     31 S          61.1254   89.1312   10.3972 S.O2    1  UNL1        0.0557
     32 O          60.0048   90.0350   10.8182 O.2     1  UNL1       -0.1544
     33 O          62.2460   88.2273    9.9763 O.2     1  UNL1       -0.1544
@<TRIPOS>BOND
     1    30    31    1
     2    31    32    2
     3    31    33    2
     4    31    28    1
     5    28    19    1
     6    19    20    2
     7    20    21    1
     8    21    22    2
     9    22    23    1
    10    23    24    2
    11    24    25    1
    12    25    18    1
    13    18     1    1
    14     1     2   ar
    15     2     3   ar
    16     3     4   ar
    17     4     8    1
    18     8    10    1
    19    10    11    1
    20    11    12   ar
    21    12    13   ar
    22    13    14   ar
    23    14    15    1
    24    14    16   ar
    25    16    17   ar
    26     4     5   ar
    27     5     6   ar
    28     6     7    1
    29    25    26    2
    30    26    27    1
    31    27    19    1
    32    26    22    1
    33     6     1   ar
    34    17    11   ar
    35    28    29    1
    36     8     9    1
@<TRIPOS>MOLECULE
*****
 33 36 0 0 0
SMALL
GASTEIGER

@<TRIPOS>ATOM
      1 C          61.9461   88.2751   10.8239 C.ar    1  UNL1        0.0284
      2 C          62.8298   88.3472   12.0337 C.ar    1  UNL1        0.0027
      3 C          63.4696   89.6481   12.4188 C.ar    1  UNL1        0.0339
      4 C          63.2258   90.8770   11.5939 C.ar    1  UNL1        0.1311
      5 N          62.3420   90.8049   10.3840 N.ar    1  UNL1       -0.2035
      6 C          61.7022   89.5040    9.9989 C.ar    1  UNL1        0.2196
      7 F          60.8185   89.4320    8.7890 F       1  UNL1       -0.1835
      8 N          63.8657   92.1779   11.9790 N.pl3   1  UNL1       -0.3144
      9 H          63.3200   92.8982   12.3698 H       1  UNL1        0.1485
     10 C          65.3368   92.3813   11.7686 C.3     1  UNL1        0.1169
     11 C          66.2720   92.3605   12.9412 C.ar    1  UNL1        0.0166
     12 C          65.7280   92.4502   14.3361 C.ar    1  UNL1        0.0014
     13 C          66.6633   92.4294   15.5087 C.ar    1  UNL1        0.0305
     14 C          68.1426   92.3190   15.2863 C.ar    1  UNL1        0.1383
     15 CL         69.0778   92.2982   16.4589 Cl      1  UNL1       -0.0613
     16 N          68.6866   92.2293   13.8913 N.ar    1  UNL1       -0.2327
     17 C          67.7514   92.2501   12.7188 C.ar    1  UNL1        0.0972
     18 C          61.3062   86.9743   10.4388 C.3     1  UNL1        0.0603
     19 C          63.7734   83.4380   12.7025 C.2     1  UNL1        0.0934
     20 C          64.4859   82.5239   11.7503 C.2     1  UNL1        0.2476
     21 N          64.3880   82.7569   10.2718 N.2     1  UNL1       -0.0297
     22 C          63.5775   83.9041    9.7454 C.2     1  UNL1        0.3717
     23 N          63.2989   84.3795    8.3503 N.2     1  UNL1       -0.0311
     24 C          62.4142   85.5875    8.4402 C.2     1  UNL1        0.2319
     25 C          62.1460   85.8586    9.8909 C.2     1  UNL1        0.0329
     26 C          62.8650   84.8182   10.6976 C.2     1  UNL1        0.0720
     27 C          62.9629   84.5851   12.1761 C.3     1  UNL1        0.0804
     28 N          63.8713   83.2049   14.1810 N.pl3   1  UNL1       -0.2187
     29 H          63.9512   82.2880   14.5306 H       1  UNL1        0.1731
     30 C          63.8236   85.5327   16.0729 C.3     1  UNL1        0.1996
     31 S          63.8475   84.3688   15.1270 S.O2    1  UNL1        0.0557
     32 O          62.4979   83.9395   15.6211 O.2     1  UNL1       -0.1544
     33 O          65.1971   84.7980   14.6328 O.2     1  UNL1       -0.1544
@<TRIPOS>BOND
     1    30    31    1
     2    31    32    2
     3    31    33    2
     4    31    28    1
     5    28    19    1
     6    19    20    2
     7    20    21    1
     8    21    22    2
     9    22    23    1
    10    23    24    2
    11    24    25    1
    12    25    18    1
    13    18     1    1
    14     1     2   ar
    15     2     3   ar
    16     3     4   ar
    17     4     8    1
    18     8    10    1
    19    10    11    1
    20    11    12   ar
    21    12    13   ar
    22    13    14   ar
    23    14    15    1
    24    14    16   ar
    25    16    17   ar
    26     4     5   ar
    27     5     6   ar
    28     6     7    1
    29    25    26    2
    30    26    27    1
    31    27    19    1
    32    26    22    1
    33     6     1   ar
    34    17    11   ar
    35    28    29    1
    36     8     9    1
@<TRIPOS>MOLECULE
*****
 33 36 0 0 0
SMALL
GASTEIGER

@<TRIPOS>ATOM
      1 C          63.7513   84.3666   14.5621 C.ar    1  UNL1        0.0284
      2 C          64.7385   85.4946   14.5069 C.ar    1  UNL1        0.0027
      3 C          64.5331   86.7134   15.3567 C.ar    1  UNL1        0.0339
      4 C          63.3404   86.8043   16.2619 C.ar    1  UNL1        0.1311
      5 N          62.3531   85.6762   16.3171 N.ar    1  UNL1       -0.2035
      6 C          62.5586   84.4574   15.4672 C.ar    1  UNL1        0.2196
      7 F          61.5713   83.3295   15.5225 F       1  UNL1       -0.1835
      8 N          63.1349   88.0231   17.1117 N.pl3   1  UNL1       -0.3144
      9 H          63.2931   87.9787   18.0824 H       1  UNL1        0.1485
     10 C          62.6885   89.3095   16.4826 C.3     1  UNL1        0.1169
     11 C          63.7030   90.2639   15.9259 C.ar    1  UNL1        0.0166
     12 C          64.3570   89.9780   14.6067 C.ar    1  UNL1        0.0014
     13 C          65.3716   90.9324   14.0500 C.ar    1  UNL1        0.0305
     14 C          65.7321   92.1727   14.8126 C.ar    1  UNL1        0.1383
     15 CL         66.7467   93.1270   14.2560 Cl      1  UNL1       -0.0613
     16 N          65.0781   92.4586   16.1320 N.ar    1  UNL1       -0.2327
     17 C          64.0636   91.5042   16.6886 C.ar    1  UNL1        0.0972
     18 C          63.9568   83.1478   13.7122 C.3     1  UNL1        0.0603
     19 C          61.5911   86.2096   10.7549 C.2     1  UNL1        0.0934
     20 C          61.8959   85.9713    9.3057 C.2     1  UNL1        0.2476
     21 N          62.8441   84.8790    8.9085 N.2     1  UNL1       -0.0297
     22 C          63.4875   84.0250    9.9604 C.2     1  UNL1        0.3717
     23 N          64.4557   82.8827    9.8722 N.2     1  UNL1       -0.0311
     24 C          64.7493   82.4151   11.2668 C.2     1  UNL1        0.2319
     25 C          63.9626   83.2683   12.2171 C.2     1  UNL1        0.0329
     26 C          63.1828   84.2634   11.4097 C.2     1  UNL1        0.0720
     27 C          62.2346   85.3557   11.8069 C.3     1  UNL1        0.0804
     28 N          60.6429   87.3019   11.1522 N.pl3   1  UNL1       -0.2187
     29 H          59.8033   87.0803   11.6160 H       1  UNL1        0.1731
     30 C          61.3050   90.1617   10.5332 C.3     1  UNL1        0.1996
     31 S          60.9740   88.7318   10.8427 S.O2    1  UNL1        0.0557
     32 O          59.9464   88.7332    9.7500 O.2     1  UNL1       -0.1544
     33 O          62.0015   88.7304   11.9354 O.2     1  UNL1       -0.1544
@<TRIPOS>BOND
     1    30    31    1
     2    31    32    2
     3    31    33    2
     4    31    28    1
     5    28    19    1
     6    19    20    2
     7    20    21    1
     8    21    22    2
     9    22    23    1
    10    23    24    2
    11    24    25    1
    12    25    18    1
    13    18     1    1
    14     1     2   ar
    15     2     3   ar
    16     3     4   ar
    17     4     8    1
    18     8    10    1
    19    10    11    1
    20    11    12   ar
    21    12    13   ar
    22    13    14   ar
    23    14    15    1
    24    14    16   ar
    25    16    17   ar
    26     4     5   ar
    27     5     6   ar
    28     6     7    1
    29    25    26    2
    30    26    27    1
    31    27    19    1
    32    26    22    1
    33     6     1   ar
    34    17    11   ar
    35    28    29    1
    36     8     9    1
@<TRIPOS>MOLECULE
*****
 33 36 0 0 0
SMALL
GASTEIGER

@<TRIPOS>ATOM
      1 C          63.1535   84.5787   10.2924 C.ar    1  UNL1        0.0284
      2 C          62.3675   85.2969   11.3489 C.ar    1  UNL1        0.0027
      3 C          62.3781   84.7955   12.7626 C.ar    1  UNL1        0.0339
      4 C          63.1747   83.5758   13.1198 C.ar    1  UNL1        0.1311
      5 N          63.9608   82.8575   12.0632 N.ar    1  UNL1       -0.2035
      6 C          63.9502   83.3589   10.6495 C.ar    1  UNL1        0.2196
      7 F          64.7362   82.6406    9.5931 F       1  UNL1       -0.1835
      8 N          63.1854   83.0744   14.5334 N.pl3   1  UNL1       -0.3144
      9 H          62.6663   82.2737   14.7757 H       1  UNL1        0.1485
     10 C          63.9869   83.7930   15.5780 C.3     1  UNL1        0.1169
     11 C          63.7878   85.2636   15.7961 C.ar    1  UNL1        0.0166
     12 C          64.5275   86.2546   14.9473 C.ar    1  UNL1        0.0014
     13 C          64.3283   87.7253   15.1653 C.ar    1  UNL1        0.0305
     14 C          63.3895   88.2049   16.2324 C.ar    1  UNL1        0.1383
     15 CL         63.1904   89.6756   16.4504 Cl      1  UNL1       -0.0613
     16 N          62.6498   87.2138   17.0813 N.ar    1  UNL1       -0.2327
     17 C          62.8489   85.7432   16.8631 C.ar    1  UNL1        0.0972
     18 C          63.1428   85.0801    8.8787 C.3     1  UNL1        0.0603
     19 C          60.9217   89.3656    9.5249 C.2     1  UNL1        0.0934
     20 C          59.6608   89.4946    8.7228 C.2     1  UNL1        0.2476
     21 N          59.2133   88.3657    7.8422 N.2     1  UNL1       -0.0297
     22 C          60.0267   87.1079    7.7637 C.2     1  UNL1        0.3717
     23 N          59.8381   85.8373    6.9891 N.2     1  UNL1       -0.0311
     24 C          60.9824   84.9230    7.3126 C.2     1  UNL1        0.2319
     25 C          61.8783   85.6286    8.2870 C.2     1  UNL1        0.0329
     26 C          61.2877   86.9790    8.5658 C.2     1  UNL1        0.0720
     27 C          61.7351   88.1078    9.4464 C.3     1  UNL1        0.0804
     28 N          61.3692   90.4944   10.4056 N.pl3   1  UNL1       -0.2187
     29 H          60.9800   91.3915   10.2918 H       1  UNL1        0.1731
     30 C          63.4499   90.0182   12.5137 C.3     1  UNL1        0.1996
     31 S          62.4095   90.2563   11.4596 S.O2    1  UNL1        0.0557
     32 O          61.3709   89.6324   12.3438 O.2     1  UNL1       -0.1544
     33 O          63.4481   90.8803   10.5754 O.2     1  UNL1       -0.1544
@<TRIPOS>BOND
     1    30    31    1
     2    31    32    2
     3    31    33    2
     4    31    28    1
     5    28    19    1
     6    19    20    2
     7    20    21    1
     8    21    22    2
     9    22    23    1
    10    23    24    2
    11    24    25    1
    12    25    18    1
    13    18     1    1
    14     1     2   ar
    15     2     3   ar
    16     3     4   ar
    17     4     8    1
    18     8    10    1
    19    10    11    1
    20    11    12   ar
    21    12    13   ar
    22    13    14   ar
    23    14    15    1
    24    14    16   ar
    25    16    17   ar
    26     4     5   ar
    27     5     6   ar
    28     6     7    1
    29    25    26    2
    30    26    27    1
    31    27    19    1
    32    26    22    1
    33     6     1   ar
    34    17    11   ar
    35    28    29    1
    36     8     9    1
@<TRIPOS>MOLECULE
*****
 33 36 0 0 0
SMALL
GASTEIGER

@<TRIPOS>ATOM
      1 C          62.3740   88.7224   11.3801 C.ar    1  UNL1        0.0284
      2 C          62.1945   90.0287   10.6649 C.ar    1  UNL1        0.0027
      3 C          62.9898   91.2292   11.0849 C.ar    1  UNL1        0.0339
      4 C          63.9646   91.1235   12.2200 C.ar    1  UNL1        0.1311
      5 N          64.1440   89.8172   12.9352 N.ar    1  UNL1       -0.2035
      6 C          63.3488   88.6167   12.5153 C.ar    1  UNL1        0.2196
      7 F          63.5283   87.3105   13.2305 F       1  UNL1       -0.1835
      8 N          64.7598   92.3240   12.6400 N.pl3   1  UNL1       -0.3144
      9 H          64.3455   93.0160   13.2045 H       1  UNL1        0.1485
     10 C          66.1862   92.4701   12.1997 C.3     1  UNL1        0.1169
     11 C          66.5569   93.5192   11.1937 C.ar    1  UNL1        0.0166
     12 C          67.2429   93.1267    9.9188 C.ar    1  UNL1        0.0014
     13 C          67.6135   94.1758    8.9128 C.ar    1  UNL1        0.0305
     14 C          67.2982   95.6174    9.1816 C.ar    1  UNL1        0.1383
     15 CL         67.6688   96.6665    8.1756 Cl      1  UNL1       -0.0613
     16 N          66.6121   96.0099   10.4566 N.ar    1  UNL1       -0.2327
     17 C          66.2415   94.9608   11.4625 C.ar    1  UNL1        0.0972
     18 C          61.5787   87.5219   10.9602 C.3     1  UNL1        0.0603
     19 C          63.1325   83.1116   12.3206 C.2     1  UNL1        0.0934
     20 C          63.7350   82.3321   11.1896 C.2     1  UNL1        0.2476
     21 N          63.8063   82.9346    9.8177 N.2     1  UNL1       -0.0297
     22 C          63.2751   84.3165    9.5770 C.2     1  UNL1        0.3717
     23 N          63.2087   85.1653    8.3420 N.2     1  UNL1       -0.0311
     24 C          62.5652   86.4694    8.7098 C.2     1  UNL1        0.2319
     25 C          62.2338   86.4266   10.1721 C.2     1  UNL1        0.0329
     26 C          62.6726   85.0960   10.7080 C.2     1  UNL1        0.0720
     27 C          62.6013   84.4935   12.0799 C.3     1  UNL1        0.0804
     28 N          63.0612   82.5091   13.6925 N.pl3   1  UNL1       -0.2187
     29 H          63.2891   83.0525   14.4812 H       1  UNL1        0.1731
     30 C          62.2242   79.6484   14.0328 C.3     1  UNL1        0.1996
     31 S          62.6427   81.0788   13.8626 S.O2    1  UNL1        0.0557
     32 O          61.2317   81.4503   13.5150 O.2     1  UNL1       -0.1544
     33 O          64.0538   80.7073   14.2102 O.2     1  UNL1       -0.1544
@<TRIPOS>BOND
     1    30    31    1
     2    31    32    2
     3    31    33    2
     4    31    28    1
     5    28    19    1
     6    19    20    2
     7    20    21    1
     8    21    22    2
     9    22    23    1
    10    23    24    2
    11    24    25    1
    12    25    18    1
    13    18     1    1
    14     1     2   ar
    15     2     3   ar
    16     3     4   ar
    17     4     8    1
    18     8    10    1
    19    10    11    1
    20    11    12   ar
    21    12    13   ar
    22    13    14   ar
    23    14    15    1
    24    14    16   ar
    25    16    17   ar
    26     4     5   ar
    27     5     6   ar
    28     6     7    1
    29    25    26    2
    30    26    27    1
    31    27    19    1
    32    26    22    1
    33     6     1   ar
    34    17    11   ar
    35    28    29    1
    36     8     9    1
@<TRIPOS>MOLECULE
*****
 33 36 0 0 0
SMALL
GASTEIGER

@<TRIPOS>ATOM
      1 C          63.6380   86.7596   15.6065 C.ar    1  UNL1        0.0284
      2 C          64.3328   87.4614   14.4775 C.ar    1  UNL1        0.0027
      3 C          64.4499   88.9568   14.4827 C.ar    1  UNL1        0.0339
      4 C          63.8723   89.7504   15.6170 C.ar    1  UNL1        0.1311
      5 N          63.1775   89.0485   16.7461 N.ar    1  UNL1       -0.2035
      6 C          63.0604   87.5531   16.7408 C.ar    1  UNL1        0.2196
      7 F          62.3656   86.8513   17.8699 F       1  UNL1       -0.1835
      8 N          63.9895   91.2458   15.6223 N.pl3   1  UNL1       -0.3144
      9 H          63.1855   91.8022   15.7380 H       1  UNL1        0.1485
     10 C          65.3315   91.8936   15.4512 C.3     1  UNL1        0.1169
     11 C          65.9229   92.0431   14.0808 C.ar    1  UNL1        0.0166
     12 C          65.0258   92.2253   12.8926 C.ar    1  UNL1        0.0014
     13 C          65.6172   92.3749   11.5222 C.ar    1  UNL1        0.0305
     14 C          67.1057   92.3423   11.3401 C.ar    1  UNL1        0.1383
     15 CL         67.6971   92.4919    9.9697 Cl      1  UNL1       -0.0613
     16 N          68.0029   92.1601   12.5284 N.ar    1  UNL1       -0.2327
     17 C          67.4115   92.0105   13.8987 C.ar    1  UNL1        0.0972
     18 C          63.5209   85.2642   15.6013 C.3     1  UNL1        0.0603
     19 C          61.8532   85.8744   11.0666 C.2     1  UNL1        0.0934
     20 C          62.3977   84.8604   10.1047 C.2     1  UNL1        0.2476
     21 N          63.3513   83.8069   10.5854 N.2     1  UNL1       -0.0297
     22 C          63.7603   83.7675   12.0280 C.2     1  UNL1        0.3717
     23 N          64.6767   82.8541   12.7868 N.2     1  UNL1       -0.0311
     24 C          64.6986   83.3036   14.2178 C.2     1  UNL1        0.2319
     25 C          63.7957   84.4948   14.3433 C.2     1  UNL1        0.0329
     26 C          63.2158   84.7815   12.9899 C.2     1  UNL1        0.0720
     27 C          62.2622   85.8349   12.5092 C.3     1  UNL1        0.0804
     28 N          60.8997   86.9278   10.5859 N.pl3   1  UNL1       -0.2187
     29 H          60.1319   86.6769   10.0230 H       1  UNL1        0.1731
     30 C          61.3319   89.7991   11.3400 C.3     1  UNL1        0.1996
     31 S          61.1158   88.3634   10.9630 S.O2    1  UNL1        0.0557
     32 O          59.9201   88.3061   11.8668 O.2     1  UNL1       -0.1544
     33 O          62.3115   88.4207   10.0591 O.2     1  UNL1       -0.1544
@<TRIPOS>BOND
     1    30    31    1
     2    31    32    2
     3    31    33    2
     4    31    28    1
     5    28    19    1
     6    19    20    2
     7    20    21    1
     8    21    22    2
     9    22    23    1
    10    23    24    2
    11    24    25    1
    12    25    18    1
    13    18     1    1
    14     1     2   ar
    15     2     3   ar
    16     3     4   ar
    17     4     8    1
    18     8    10    1
    19    10    11    1
    20    11    12   ar
    21    12    13   ar
    22    13    14   ar
    23    14    15    1
    24    14    16   ar
    25    16    17   ar
    26     4     5   ar
    27     5     6   ar
    28     6     7    1
    29    25    26    2
    30    26    27    1
    31    27    19    1
    32    26    22    1
    33     6     1   ar
    34    17    11   ar
    35    28    29    1
    36     8     9    1
@<TRIPOS>MOLECULE
*****
 33 36 0 0 0
SMALL
GASTEIGER

@<TRIPOS>ATOM
      1 C          60.4735   87.5114    9.3044 C.ar    1  UNL1        0.0284
      2 C          59.5923   86.7709    8.3426 C.ar    1  UNL1        0.0027
      3 C          58.9545   87.4990    7.1967 C.ar    1  UNL1        0.0339
      4 C          59.1979   88.9676    7.0126 C.ar    1  UNL1        0.1311
      5 N          60.0792   89.7081    7.9745 N.ar    1  UNL1       -0.2035
      6 C          60.7170   88.9800    9.1204 C.ar    1  UNL1        0.2196
      7 F          61.5982   89.7206   10.0821 F       1  UNL1       -0.1835
      8 N          58.5601   89.6957    5.8667 N.pl3   1  UNL1       -0.3144
      9 H          57.9655   89.2140    5.2472 H       1  UNL1        0.1485
     10 C          58.8283   91.1576    5.6646 C.3     1  UNL1        0.1169
     11 C          59.8106   91.6028    4.6221 C.ar    1  UNL1        0.0166
     12 C          61.2133   91.0717    4.6379 C.ar    1  UNL1        0.0014
     13 C          62.1957   91.5169    3.5954 C.ar    1  UNL1        0.0305
     14 C          61.7753   92.4932    2.5370 C.ar    1  UNL1        0.1383
     15 CL         62.7577   92.9384    1.4945 Cl      1  UNL1       -0.0613
     16 N          60.3725   93.0243    2.5212 N.ar    1  UNL1       -0.2327
     17 C          59.3902   92.5791    3.5637 C.ar    1  UNL1        0.0972
     18 C          61.1113   86.7833   10.4503 C.3     1  UNL1        0.0603
     19 C          63.4582   83.8001   13.5014 C.2     1  UNL1        0.0934
     20 C          64.3887   82.8593   12.7950 C.2     1  UNL1        0.2476
     21 N          64.5141   82.9092   11.3011 N.2     1  UNL1       -0.0297
     22 C          63.7090   83.8999   10.5136 C.2     1  UNL1        0.3717
     23 N          63.6232   84.1806    9.0426 N.2     1  UNL1       -0.0311
     24 C          62.6397   85.2949    8.8398 C.2     1  UNL1        0.2319
     25 C          62.1176   85.7029   10.1855 C.2     1  UNL1        0.0329
     26 C          62.7784   84.8407   11.2199 C.2     1  UNL1        0.0720
     27 C          62.6530   84.7908   12.7139 C.3     1  UNL1        0.0804
     28 N          63.3328   83.7502   14.9953 N.pl3   1  UNL1       -0.2187
     29 H          63.2229   82.8846   15.4514 H       1  UNL1        0.1731
     30 C          63.4170   86.2878   16.5933 C.3     1  UNL1        0.1996
     31 S          63.3749   85.0189   15.7943 S.O2    1  UNL1        0.0557
     32 O          64.8010   85.2319   15.3810 O.2     1  UNL1       -0.1544
     33 O          61.9488   84.8060   16.2076 O.2     1  UNL1       -0.1544
@<TRIPOS>BOND
     1    30    31    1
     2    31    32    2
     3    31    33    2
     4    31    28    1
     5    28    19    1
     6    19    20    2
     7    20    21    1
     8    21    22    2
     9    22    23    1
    10    23    24    2
    11    24    25    1
    12    25    18    1
    13    18     1    1
    14     1     2   ar
    15     2     3   ar
    16     3     4   ar
    17     4     8    1
    18     8    10    1
    19    10    11    1
    20    11    12   ar
    21    12    13   ar
    22    13    14   ar
    23    14    15    1
    24    14    16   ar
    25    16    17   ar
    26     4     5   ar
    27     5     6   ar
    28     6     7    1
    29    25    26    2
    30    26    27    1
    31    27    19    1
    32    26    22    1
    33     6     1   ar
    34    17    11   ar
    35    28    29    1
    36     8     9    1
@<TRIPOS>MOLECULE
*****
 33 36 0 0 0
SMALL
GASTEIGER

@<TRIPOS>ATOM
      1 C          63.2381   90.4662   12.2923 C.ar    1  UNL1        0.0284
      2 C          61.9463   89.7427   12.5323 C.ar    1  UNL1        0.0027
      3 C          61.0347   89.4337   11.3819 C.ar    1  UNL1        0.0339
      4 C          61.4151   89.8481    9.9913 C.ar    1  UNL1        0.1311
      5 N          62.7070   90.5716    9.7513 N.ar    1  UNL1       -0.2035
      6 C          63.6185   90.8807   10.9018 C.ar    1  UNL1        0.2196
      7 F          64.9104   91.6041   10.6617 F       1  UNL1       -0.1835
      8 N          60.5035   89.5390    8.8409 N.pl3   1  UNL1       -0.3144
      9 H          60.1352   90.2705    8.2944 H       1  UNL1        0.1485
     10 C          60.1531   88.1156    8.5231 C.3     1  UNL1        0.1169
     11 C          61.0306   87.0006    9.0097 C.ar    1  UNL1        0.0166
     12 C          62.0437   86.3872    8.0892 C.ar    1  UNL1        0.0014
     13 C          62.9212   85.2722    8.5758 C.ar    1  UNL1        0.0305
     14 C          62.7856   84.7706    9.9830 C.ar    1  UNL1        0.1383
     15 CL         63.6632   83.6557   10.4696 Cl      1  UNL1       -0.0613
     16 N          61.7725   85.3842   10.9035 N.ar    1  UNL1       -0.2327
     17 C          60.8951   86.4991   10.4168 C.ar    1  UNL1        0.0972
     18 C          64.1497   90.7752   13.4428 C.3     1  UNL1        0.0603
     19 C          63.9310   86.2656   15.2682 C.2     1  UNL1        0.0934
     20 C          63.5437   86.2422   16.7171 C.2     1  UNL1        0.2476
     21 N          63.2720   87.5272   17.4416 N.2     1  UNL1       -0.0297
     22 C          63.3877   88.8356   16.7173 C.2     1  UNL1        0.3717
     23 N          63.1823   90.2523   17.1652 N.2     1  UNL1       -0.0311
     24 C          63.4428   91.1514   15.9930 C.2     1  UNL1        0.2319
     25 C          63.8091   90.2903   14.8208 C.2     1  UNL1        0.0329
     26 C          63.7750   88.8590   15.2684 C.2     1  UNL1        0.0720
     27 C          64.0467   87.5740   14.5439 C.3     1  UNL1        0.0804
     28 N          64.2027   84.9806   14.5436 N.pl3   1  UNL1       -0.2187
     29 H          65.0297   84.8763   14.0196 H       1  UNL1        0.1731
     30 C          62.2262   82.7286   14.6909 C.3     1  UNL1        0.1996
     31 S          63.2145   83.8546   14.6172 S.O2    1  UNL1        0.0557
     32 O          62.1950   84.7036   13.9173 O.2     1  UNL1       -0.1544
     33 O          64.2339   83.0057   15.3172 O.2     1  UNL1       -0.1544
@<TRIPOS>BOND
     1    30    31    1
     2    31    32    2
     3    31    33    2
     4    31    28    1
     5    28    19    1
     6    19    20    2
     7    20    21    1
     8    21    22    2
     9    22    23    1
    10    23    24    2
    11    24    25    1
    12    25    18    1
    13    18     1    1
    14     1     2   ar
    15     2     3   ar
    16     3     4   ar
    17     4     8    1
    18     8    10    1
    19    10    11    1
    20    11    12   ar
    21    12    13   ar
    22    13    14   ar
    23    14    15    1
    24    14    16   ar
    25    16    17   ar
    26     4     5   ar
    27     5     6   ar
    28     6     7    1
    29    25    26    2
    30    26    27    1
    31    27    19    1
    32    26    22    1
    33     6     1   ar
    34    17    11   ar
    35    28    29    1
    36     8     9    1
