@<TRIPOS>MOLECULE
*****
 40 45 0 0 0
SMALL
GASTEIGER

@<TRIPOS>ATOM
      1 O          61.1474   89.5124    8.8648 O.2     1  UNL1       -0.2726
      2 C          61.7805   88.8334   10.0429 C.2     1  UNL1        0.2521
      3 C          62.6028   89.7734   10.8736 C.3     1  UNL1        0.2204
      4 N          62.6690   91.2020   10.4211 N.2     1  UNL1       -0.2277
      5 C          63.5351   91.9546   11.3873 C.2     1  UNL1        0.2413
      6 N          64.0042   90.9912   12.4369 N.pl3   1  UNL1       -0.1554
      7 C          64.8890   91.2441   13.6221 C.cat   1  UNL1        0.3804
      8 N          65.2121   90.0955   14.5311 N.2     1  UNL1       -0.0723
      9 C          64.6539   88.7329   14.2454 C.2     1  UNL1        0.1911
     10 C          63.7727   88.5188   13.0506 C.2     1  UNL1        0.0527
     11 C          63.4350   87.0590   13.1216 C.ar    1  UNL1        0.0188
     12 C          64.1447   86.5553   14.3434 C.ar    1  UNL1        0.0983
     13 N          64.0321   85.1116   14.7344 N.ar    1  UNL1       -0.2399
     14 C          63.2098   84.1715   13.9037 C.ar    1  UNL1        0.1524
     15 C          62.5001   84.6752   12.6819 C.ar    1  UNL1        0.0205
     16 C          62.6128   86.1189   12.2909 C.ar    1  UNL1        0.0005
     17 C          61.7875   86.2492   11.0451 C.3     1  UNL1        0.1205
     18 N          61.4428   87.3735   10.1139 N.am    1  UNL1       -0.2683
     19 C          63.4280   89.6431   12.1195 C.3     1  UNL1        0.1964
     20 C          63.0972   82.7278   14.2948 C.3     1  UNL1        0.4348
     21 F          62.9846   81.2841   14.6858 F       1  UNL1       -0.1644
     22 F          62.0908   82.5107   13.2039 F       1  UNL1       -0.1644
     23 F          64.1036   82.9448   15.3856 F       1  UNL1       -0.1644
     24 N          65.4472   92.6067   13.9078 N.pl3   1  UNL1       -0.2203
     25 H          64.8913   93.2813   14.3607 H       1  UNL1        0.2456
     26 C          66.8523   92.9416   13.5036 C.3     1  UNL1        0.1927
     27 C          67.2186   93.0105   12.0507 C.ar    1  UNL1        0.0412
     28 C          68.1365   91.9822   11.4590 C.ar    1  UNL1        0.1391
     29 F          68.6881   90.8850   12.3204 F       1  UNL1       -0.2044
     30 C          68.5028   92.0511   10.0061 C.ar    1  UNL1        0.0325
     31 C          67.9513   93.1482    9.1447 C.ar    1  UNL1        0.0389
     32 C          67.0333   94.1765    9.7363 C.ar    1  UNL1        0.1346
     33 C          66.6671   94.1076   11.1893 C.ar    1  UNL1        0.0168
     34 C          65.7470   95.2535   11.4902 C.3     1  UNL1        0.0766
     35 C          65.5446   96.0305   10.2232 C.3     1  UNL1        0.2101
     36 O          66.3397   95.3649    9.1392 O.3     1  UNL1       -0.4754
     37 C          60.5512   86.9353    8.9901 C.3     1  UNL1        0.1662
     38 C          61.0507   85.9473    7.9781 C.3     1  UNL1        0.3381
     39 F          62.5194   85.6624    7.8695 F       1  UNL1       -0.1965
     40 F          60.0815   85.2442    7.0745 F       1  UNL1       -0.1965
@<TRIPOS>BOND
     1     1     2    2
     2     2     3    1
     3     3     4    1
     4     4     5    2
     5     5     6    1
     6     6     7    1
     7     7    24    1
     8    24    26    1
     9    26    27    1
    10    27    28   ar
    11    28    29    1
    12    28    30   ar
    13    30    31   ar
    14    31    32   ar
    15    32    33   ar
    16    33    34    1
    17    34    35    1
    18    35    36    1
    19     7     8    2
    20     8     9    1
    21     9    10    2
    22    10    11    1
    23    11    12   ar
    24    12    13   ar
    25    13    14   ar
    26    14    20    1
    27    20    21    1
    28    20    22    1
    29    20    23    1
    30    14    15   ar
    31    15    16   ar
    32    16    17    1
    33    17    18    1
    34    18    37    1
    35    37    38    1
    36    38    39    1
    37    38    40    1
    38    10    19    1
    39    18     2   am
    40    19     3    1
    41    19     6    1
    42    33    27   ar
    43    16    11   ar
    44    36    32    1
    45    24    25    1
@<TRIPOS>MOLECULE
*****
 40 45 0 0 0
SMALL
GASTEIGER

@<TRIPOS>ATOM
      1 O          61.2771   89.0339    9.1263 O.2     1  UNL1       -0.2726
      2 C          61.8475   88.1840   10.2227 C.2     1  UNL1        0.2521
      3 C          62.4456   89.0006   11.3298 C.3     1  UNL1        0.2204
      4 N          62.3876   90.4923   11.1835 N.2     1  UNL1       -0.2277
      5 C          63.0361   91.1020   12.3909 C.2     1  UNL1        0.2413
      6 N          63.4949   89.9871   13.2834 N.pl3   1  UNL1       -0.1554
      7 C          64.1979   90.0661   14.6066 C.cat   1  UNL1        0.3804
      8 N          64.5518   88.7870   15.3056 N.2     1  UNL1       -0.0723
      9 C          64.2027   87.4691   14.6802 C.2     1  UNL1        0.1911
     10 C          63.4996   87.4302   13.3559 C.2     1  UNL1        0.0527
     11 C          63.3382   85.9631   13.0880 C.ar    1  UNL1        0.0188
     12 C          63.9574   85.2818   14.2722 C.ar    1  UNL1        0.0983
     13 N          63.9786   83.7840   14.3493 N.ar    1  UNL1       -0.2399
     14 C          63.3806   82.9674   13.2423 C.ar    1  UNL1        0.1524
     15 C          62.7613   83.6487   12.0581 C.ar    1  UNL1        0.0205
     16 C          62.7402   85.1465   11.9809 C.ar    1  UNL1        0.0005
     17 C          62.0558   85.4588   10.6831 C.3     1  UNL1        0.1205
     18 N          61.6861   86.7170    9.9548 N.am    1  UNL1       -0.2683
     19 C          63.1299   88.6883   12.6276 C.3     1  UNL1        0.1964
     20 C          63.4018   81.4695   13.3195 C.3     1  UNL1        0.4348
     21 F          63.4230   79.9717   13.3966 F       1  UNL1       -0.1644
     22 F          62.1349   81.4929   14.1222 F       1  UNL1       -0.1644
     23 F          64.6686   81.4461   12.5168 F       1  UNL1       -0.1644
     24 N          64.5470   91.3840   15.2320 N.pl3   1  UNL1       -0.2203
     25 H          64.3158   91.5590   16.1729 H       1  UNL1        0.2456
     26 C          65.2484   92.4353   14.4241 C.3     1  UNL1        0.1927
     27 C          66.7027   92.2795   14.0915 C.ar    1  UNL1        0.0412
     28 C          67.7146   92.1549   15.1917 C.ar    1  UNL1        0.1391
     29 F          67.2720   92.1861   16.6246 F       1  UNL1       -0.2044
     30 C          69.1689   91.9991   14.8591 C.ar    1  UNL1        0.0325
     31 C          69.6115   91.9680   13.4262 C.ar    1  UNL1        0.0389
     32 C          68.5996   92.0926   12.3260 C.ar    1  UNL1        0.1346
     33 C          67.1453   92.2483   12.6586 C.ar    1  UNL1        0.0168
     34 C          66.3832   92.3478   11.3704 C.3     1  UNL1        0.0766
     35 C          67.3666   92.2535   10.2416 C.3     1  UNL1        0.2101
     36 O          68.7365   92.0958   10.8322 O.3     1  UNL1       -0.4754
     37 C          60.9921   86.4440    8.6534 C.3     1  UNL1        0.1662
     38 C          61.6078   85.5068    7.6572 C.3     1  UNL1        0.3381
     39 F          63.0886   85.2680    7.6679 F       1  UNL1       -0.1965
     40 F          60.7427   84.8084    6.6503 F       1  UNL1       -0.1965
@<TRIPOS>BOND
     1     1     2    2
     2     2     3    1
     3     3     4    1
     4     4     5    2
     5     5     6    1
     6     6     7    1
     7     7    24    1
     8    24    26    1
     9    26    27    1
    10    27    28   ar
    11    28    29    1
    12    28    30   ar
    13    30    31   ar
    14    31    32   ar
    15    32    33   ar
    16    33    34    1
    17    34    35    1
    18    35    36    1
    19     7     8    2
    20     8     9    1
    21     9    10    2
    22    10    11    1
    23    11    12   ar
    24    12    13   ar
    25    13    14   ar
    26    14    20    1
    27    20    21    1
    28    20    22    1
    29    20    23    1
    30    14    15   ar
    31    15    16   ar
    32    16    17    1
    33    17    18    1
    34    18    37    1
    35    37    38    1
    36    38    39    1
    37    38    40    1
    38    10    19    1
    39    18     2   am
    40    19     3    1
    41    19     6    1
    42    33    27   ar
    43    16    11   ar
    44    36    32    1
    45    24    25    1
@<TRIPOS>MOLECULE
*****
 40 45 0 0 0
SMALL
GASTEIGER

@<TRIPOS>ATOM
      1 O          60.9571   89.2662    8.6868 O.2     1  UNL1       -0.2726
      2 C          61.6186   88.6554    9.8865 C.2     1  UNL1        0.2521
      3 C          62.4518   89.6435   10.6478 C.3     1  UNL1        0.2204
      4 N          62.4997   91.0457   10.1173 N.2     1  UNL1       -0.2277
      5 C          63.3807   91.8541   11.0230 C.2     1  UNL1        0.2413
      6 N          63.8773   90.9515   12.1132 N.pl3   1  UNL1       -0.1554
      7 C          64.7847   91.2730   13.2643 C.cat   1  UNL1        0.3804
      8 N          65.1336   90.1771   14.2273 N.2     1  UNL1       -0.0723
      9 C          64.5783   88.7981   14.0274 C.2     1  UNL1        0.1911
     10 C          63.6741   88.5149   12.8646 C.2     1  UNL1        0.0527
     11 C          63.3472   87.0594   13.0216 C.ar    1  UNL1        0.0188
     12 C          64.0849   86.6265   14.2538 C.ar    1  UNL1        0.0983
     13 N          63.9895   85.2055   14.7247 N.ar    1  UNL1       -0.2399
     14 C          63.1562   84.2175   13.9634 C.ar    1  UNL1        0.1524
     15 C          62.4185   84.6504   12.7313 C.ar    1  UNL1        0.0205
     16 C          62.5139   86.0713   12.2604 C.ar    1  UNL1        0.0005
     17 C          61.6625   86.1296   11.0268 C.3     1  UNL1        0.1205
     18 N          61.2916   87.1999   10.0435 N.am    1  UNL1       -0.2683
     19 C          63.3033   89.5853   11.8814 C.3     1  UNL1        0.1964
     20 C          63.0608   82.7965   14.4344 C.3     1  UNL1        0.4348
     21 F          62.9654   81.3756   14.9053 F       1  UNL1       -0.1644
     22 F          64.0665   83.0851   15.5092 F       1  UNL1       -0.1644
     23 F          62.0551   82.5079   13.3596 F       1  UNL1       -0.1644
     24 N          65.3400   92.6519   13.4641 N.pl3   1  UNL1       -0.2203
     25 H          64.8033   93.3367   13.9249 H       1  UNL1        0.2456
     26 C          66.7130   92.9877   12.9618 C.3     1  UNL1        0.1927
     27 C          66.8763   93.8042   11.7142 C.ar    1  UNL1        0.0412
     28 C          66.4298   95.2360   11.6910 C.ar    1  UNL1        0.1391
     29 F          65.8199   95.8513   12.9156 F       1  UNL1       -0.2044
     30 C          66.5932   96.0524   10.4434 C.ar    1  UNL1        0.0325
     31 C          67.2031   95.4372    9.2188 C.ar    1  UNL1        0.0389
     32 C          67.6496   94.0053    9.2420 C.ar    1  UNL1        0.1346
     33 C          67.4862   93.1889   10.4897 C.ar    1  UNL1        0.0168
     34 C          68.0158   91.8125   10.2156 C.3     1  UNL1        0.0766
     35 C          68.5064   91.7783    8.7985 C.3     1  UNL1        0.2101
     36 O          68.2801   93.1336    8.1968 O.3     1  UNL1       -0.4754
     37 C          60.3799   86.6967    8.9639 C.3     1  UNL1        0.1662
     38 C          60.9177   85.8077    7.8821 C.3     1  UNL1        0.3381
     39 F          62.3950   85.5738    7.7687 F       1  UNL1       -0.1965
     40 F          59.9781   85.1524    6.9136 F       1  UNL1       -0.1965
@<TRIPOS>BOND
     1     1     2    2
     2     2     3    1
     3     3     4    1
     4     4     5    2
     5     5     6    1
     6     6     7    1
     7     7    24    1
     8    24    26    1
     9    26    27    1
    10    27    28   ar
    11    28    29    1
    12    28    30   ar
    13    30    31   ar
    14    31    32   ar
    15    32    33   ar
    16    33    34    1
    17    34    35    1
    18    35    36    1
    19     7     8    2
    20     8     9    1
    21     9    10    2
    22    10    11    1
    23    11    12   ar
    24    12    13   ar
    25    13    14   ar
    26    14    20    1
    27    20    21    1
    28    20    22    1
    29    20    23    1
    30    14    15   ar
    31    15    16   ar
    32    16    17    1
    33    17    18    1
    34    18    37    1
    35    37    38    1
    36    38    39    1
    37    38    40    1
    38    10    19    1
    39    18     2   am
    40    19     3    1
    41    19     6    1
    42    33    27   ar
    43    16    11   ar
    44    36    32    1
    45    24    25    1
@<TRIPOS>MOLECULE
*****
 40 45 0 0 0
SMALL
GASTEIGER

@<TRIPOS>ATOM
      1 O          64.4863   85.9821   15.3792 O.2     1  UNL1       -0.2726
      2 C          63.8837   86.5888   14.1469 C.2     1  UNL1        0.2521
      3 C          64.2030   88.0481   14.0105 C.3     1  UNL1        0.2204
      4 N          65.0469   88.6641   15.0868 N.2     1  UNL1       -0.2277
      5 C          65.2395   90.1135   14.7522 C.2     1  UNL1        0.2413
      6 N          64.5146   90.3934   13.4691 N.pl3   1  UNL1       -0.1554
      7 C          64.3993   91.6841   12.7127 C.cat   1  UNL1        0.3804
      8 N          63.6068   91.6981   11.4392 N.2     1  UNL1       -0.0723
      9 C          62.9519   90.4406   10.9495 C.2     1  UNL1        0.1911
     10 C          63.0896   89.1692   11.7332 C.2     1  UNL1        0.0527
     11 C          62.3091   88.1742   10.9264 C.ar    1  UNL1        0.0188
     12 C          61.7894   88.9491    9.7519 C.ar    1  UNL1        0.0983
     13 N          60.9504   88.2647    8.7138 N.ar    1  UNL1       -0.2399
     14 C          60.6312   86.8054    8.8502 C.ar    1  UNL1        0.1524
     15 C          61.1509   86.0305   10.0247 C.ar    1  UNL1        0.0205
     16 C          61.9898   86.7149   11.0627 C.ar    1  UNL1        0.0005
     17 C          62.3188   85.6461   12.0625 C.3     1  UNL1        0.1205
     18 N          63.1033   85.5939   13.3400 N.am    1  UNL1       -0.2683
     19 C          63.8740   89.1169   13.0107 C.3     1  UNL1        0.1964
     20 C          59.7921   86.1210    7.8120 C.3     1  UNL1        0.4348
     21 F          58.9531   85.4367    6.7739 F       1  UNL1       -0.1644
     22 F          61.0148   85.4393    7.2732 F       1  UNL1       -0.1644
     23 F          58.5695   86.8027    8.3508 F       1  UNL1       -0.1644
     24 N          65.0542   92.9416   13.2023 N.pl3   1  UNL1       -0.2203
     25 H          64.5264   93.6127   13.6926 H       1  UNL1        0.2456
     26 C          66.5131   93.1768   12.9450 C.3     1  UNL1        0.1927
     27 C          67.0195   93.2786   11.5368 C.ar    1  UNL1        0.0412
     28 C          67.9652   92.2438   11.0031 C.ar    1  UNL1        0.1391
     29 F          68.4044   91.1071   11.8777 F       1  UNL1       -0.2044
     30 C          68.4715   92.3457    9.5948 C.ar    1  UNL1        0.0325
     31 C          68.0323   93.4823    8.7202 C.ar    1  UNL1        0.0389
     32 C          67.0866   94.5172    9.2539 C.ar    1  UNL1        0.1346
     33 C          66.5802   94.4153   10.6621 C.ar    1  UNL1        0.0168
     34 C          65.6633   95.5762   10.9101 C.3     1  UNL1        0.0766
     35 C          65.6029   96.3956    9.6551 C.3     1  UNL1        0.2101
     36 O          66.4826   95.7410    8.6314 O.3     1  UNL1       -0.4754
     37 C          63.1085   84.2257   13.9548 C.3     1  UNL1        0.1662
     38 C          63.2671   83.0135   13.0857 C.3     1  UNL1        0.3381
     39 F          64.5486   82.7882   12.3394 F       1  UNL1       -0.1965
     40 F          62.1442   82.0265   12.9630 F       1  UNL1       -0.1965
@<TRIPOS>BOND
     1     1     2    2
     2     2     3    1
     3     3     4    1
     4     4     5    2
     5     5     6    1
     6     6     7    1
     7     7    24    1
     8    24    26    1
     9    26    27    1
    10    27    28   ar
    11    28    29    1
    12    28    30   ar
    13    30    31   ar
    14    31    32   ar
    15    32    33   ar
    16    33    34    1
    17    34    35    1
    18    35    36    1
    19     7     8    2
    20     8     9    1
    21     9    10    2
    22    10    11    1
    23    11    12   ar
    24    12    13   ar
    25    13    14   ar
    26    14    20    1
    27    20    21    1
    28    20    22    1
    29    20    23    1
    30    14    15   ar
    31    15    16   ar
    32    16    17    1
    33    17    18    1
    34    18    37    1
    35    37    38    1
    36    38    39    1
    37    38    40    1
    38    10    19    1
    39    18     2   am
    40    19     3    1
    41    19     6    1
    42    33    27   ar
    43    16    11   ar
    44    36    32    1
    45    24    25    1
@<TRIPOS>MOLECULE
*****
 40 45 0 0 0
SMALL
GASTEIGER

@<TRIPOS>ATOM
      1 O          64.2452   82.8214   15.1914 O.2     1  UNL1       -0.2726
      2 C          63.8471   83.7300   14.0664 C.2     1  UNL1        0.2521
      3 C          63.8098   85.1718   14.4787 C.3     1  UNL1        0.2204
      4 N          64.1631   85.4821   15.9031 N.2     1  UNL1       -0.2277
      5 C          64.0613   86.9665   16.0930 C.2     1  UNL1        0.2413
      6 N          63.6451   87.5737   14.7861 N.pl3   1  UNL1       -0.1554
      7 C          63.4051   89.0161   14.4496 C.cat   1  UNL1        0.3804
      8 N          62.9907   89.3646   13.0507 N.2     1  UNL1       -0.0723
      9 C          62.8252   88.2819   12.0259 C.2     1  UNL1        0.1911
     10 C          63.0740   86.8508   12.3998 C.2     1  UNL1        0.0527
     11 C          62.8065   86.1045   11.1264 C.ar    1  UNL1        0.0188
     12 C          62.4281   87.1600   10.1300 C.ar    1  UNL1        0.0983
     13 N          62.0868   86.7737    8.7214 N.ar    1  UNL1       -0.2399
     14 C          62.1241   85.3319    8.3091 C.ar    1  UNL1        0.1524
     15 C          62.5026   84.2765    9.3054 C.ar    1  UNL1        0.0205
     16 C          62.8438   84.6628   10.7141 C.ar    1  UNL1        0.0005
     17 C          63.1640   83.3701   11.4044 C.3     1  UNL1        0.1205
     18 N          63.5796   82.9837   12.7929 N.am    1  UNL1       -0.2683
     19 C          63.4896   86.4645   13.7883 C.3     1  UNL1        0.1964
     20 C          61.7828   84.9457    6.9004 C.3     1  UNL1        0.4348
     21 F          61.4416   84.5594    5.4917 F       1  UNL1       -0.1644
     22 F          60.3541   85.3347    7.1398 F       1  UNL1       -0.1644
     23 F          63.2115   84.5566    6.6610 F       1  UNL1       -0.1644
     24 N          63.5707   90.0988   15.4744 N.pl3   1  UNL1       -0.2203
     25 H          63.5340   89.8787   16.4333 H       1  UNL1        0.2456
     26 C          63.7920   91.5169   15.0384 C.3     1  UNL1        0.1927
     27 C          65.1869   92.0539   14.9127 C.ar    1  UNL1        0.0412
     28 C          65.9714   92.3991   16.1437 C.ar    1  UNL1        0.1391
     29 F          65.3610   92.2072   17.5004 F       1  UNL1       -0.2044
     30 C          67.3663   92.9361   16.0180 C.ar    1  UNL1        0.0325
     31 C          67.9767   93.1280   14.6613 C.ar    1  UNL1        0.0389
     32 C          67.1922   92.7828   13.4303 C.ar    1  UNL1        0.1346
     33 C          65.7973   92.2458   13.5560 C.ar    1  UNL1        0.0168
     34 C          65.2706   91.9957   12.1740 C.3     1  UNL1        0.0766
     35 C          66.3400   92.3781   11.1941 C.3     1  UNL1        0.2101
     36 O          67.5276   92.8646   11.9706 O.3     1  UNL1       -0.4754
     37 C          63.7730   81.5039   12.9434 C.3     1  UNL1        0.1662
     38 C          62.5825   80.6023   13.0834 C.3     1  UNL1        0.3381
     39 F          62.4591   79.3832   12.2183 F       1  UNL1       -0.1965
     40 F          61.5152   80.9198   14.0885 F       1  UNL1       -0.1965
@<TRIPOS>BOND
     1     1     2    2
     2     2     3    1
     3     3     4    1
     4     4     5    2
     5     5     6    1
     6     6     7    1
     7     7    24    1
     8    24    26    1
     9    26    27    1
    10    27    28   ar
    11    28    29    1
    12    28    30   ar
    13    30    31   ar
    14    31    32   ar
    15    32    33   ar
    16    33    34    1
    17    34    35    1
    18    35    36    1
    19     7     8    2
    20     8     9    1
    21     9    10    2
    22    10    11    1
    23    11    12   ar
    24    12    13   ar
    25    13    14   ar
    26    14    20    1
    27    20    21    1
    28    20    22    1
    29    20    23    1
    30    14    15   ar
    31    15    16   ar
    32    16    17    1
    33    17    18    1
    34    18    37    1
    35    37    38    1
    36    38    39    1
    37    38    40    1
    38    10    19    1
    39    18     2   am
    40    19     3    1
    41    19     6    1
    42    33    27   ar
    43    16    11   ar
    44    36    32    1
    45    24    25    1
@<TRIPOS>MOLECULE
*****
 40 45 0 0 0
SMALL
GASTEIGER

@<TRIPOS>ATOM
      1 O          60.8149   88.6723    8.7019 O.2     1  UNL1       -0.2726
      2 C          61.4681   87.9221    9.8246 C.2     1  UNL1        0.2521
      3 C          62.1315   88.8333   10.8144 C.3     1  UNL1        0.2204
      4 N          62.0475   90.3067   10.5463 N.2     1  UNL1       -0.2277
      5 C          62.7703   91.0205   11.6499 C.2     1  UNL1        0.2413
      6 N          63.3010   89.9883   12.6001 N.pl3   1  UNL1       -0.1554
      7 C          64.0918   90.1836   13.8602 C.cat   1  UNL1        0.3804
      8 N          64.5065   88.9707   14.6393 N.2     1  UNL1       -0.0723
      9 C          64.1298   87.6025   14.1536 C.2     1  UNL1        0.1911
     10 C          63.3384   87.4470   12.8890 C.2     1  UNL1        0.0527
     11 C          63.1750   85.9616   12.7584 C.ar    1  UNL1        0.0188
     12 C          63.8810   85.3872   13.9507 C.ar    1  UNL1        0.0983
     13 N          63.9237   83.9015   14.1531 N.ar    1  UNL1       -0.2399
     14 C          63.2603   82.9904   13.1633 C.ar    1  UNL1        0.1524
     15 C          62.5543   83.5648   11.9710 C.ar    1  UNL1        0.0205
     16 C          62.5117   85.0505   11.7686 C.ar    1  UNL1        0.0005
     17 C          61.7369   85.2472   10.4993 C.3     1  UNL1        0.1205
     18 N          61.3047   86.4367    9.6940 N.am    1  UNL1       -0.2683
     19 C          62.9062   88.6365   12.0837 C.3     1  UNL1        0.1964
     20 C          63.3030   81.5047   13.3658 C.3     1  UNL1        0.4348
     21 F          63.3456   80.0190   13.5682 F       1  UNL1       -0.1644
     22 F          64.7453   81.4900   12.9543 F       1  UNL1       -0.1644
     23 F          61.8606   81.5194   13.7773 F       1  UNL1       -0.1644
     24 N          64.4685   91.5519   14.3459 N.pl3   1  UNL1       -0.2203
     25 H          64.4352   91.7592   15.3077 H       1  UNL1        0.2456
     26 C          64.8960   92.6042   13.3661 C.3     1  UNL1        0.1927
     27 C          66.1555   92.4225   12.5721 C.ar    1  UNL1        0.0412
     28 C          66.1035   92.4220   11.0730 C.ar    1  UNL1        0.1391
     29 F          64.7919   92.6031   10.3680 F       1  UNL1       -0.2044
     30 C          67.3630   92.2402   10.2790 C.ar    1  UNL1        0.0325
     31 C          68.6746   92.0591   10.9839 C.ar    1  UNL1        0.0389
     32 C          68.7266   92.0597   12.4831 C.ar    1  UNL1        0.1346
     33 C          67.4670   92.2414   13.2771 C.ar    1  UNL1        0.0168
     34 C          67.8265   92.1984   14.7328 C.3     1  UNL1        0.0766
     35 C          69.3082   91.9901   14.8383 C.3     1  UNL1        0.2101
     36 O          69.8645   91.9044   13.4479 O.3     1  UNL1       -0.4754
     37 C          60.5264   86.0500    8.4714 C.3     1  UNL1        0.1662
     38 C          61.1874   85.2617    7.3799 C.3     1  UNL1        0.3381
     39 F          60.3518   84.5371    6.3666 F       1  UNL1       -0.1965
     40 F          62.6840   85.1979    7.3015 F       1  UNL1       -0.1965
@<TRIPOS>BOND
     1     1     2    2
     2     2     3    1
     3     3     4    1
     4     4     5    2
     5     5     6    1
     6     6     7    1
     7     7    24    1
     8    24    26    1
     9    26    27    1
    10    27    28   ar
    11    28    29    1
    12    28    30   ar
    13    30    31   ar
    14    31    32   ar
    15    32    33   ar
    16    33    34    1
    17    34    35    1
    18    35    36    1
    19     7     8    2
    20     8     9    1
    21     9    10    2
    22    10    11    1
    23    11    12   ar
    24    12    13   ar
    25    13    14   ar
    26    14    20    1
    27    20    21    1
    28    20    22    1
    29    20    23    1
    30    14    15   ar
    31    15    16   ar
    32    16    17    1
    33    17    18    1
    34    18    37    1
    35    37    38    1
    36    38    39    1
    37    38    40    1
    38    10    19    1
    39    18     2   am
    40    19     3    1
    41    19     6    1
    42    33    27   ar
    43    16    11   ar
    44    36    32    1
    45    24    25    1
@<TRIPOS>MOLECULE
*****
 40 45 0 0 0
SMALL
GASTEIGER

@<TRIPOS>ATOM
      1 O          64.4640   86.1741   15.1918 O.2     1  UNL1       -0.2726
      2 C          63.8372   86.8270   13.9956 C.2     1  UNL1        0.2521
      3 C          64.2062   88.2757   13.8731 C.3     1  UNL1        0.2204
      4 N          65.1146   88.8384   14.9258 N.2     1  UNL1       -0.2277
      5 C          65.3490   90.2860   14.6101 C.2     1  UNL1        0.2413
      6 N          64.5856   90.6179   13.3624 N.pl3   1  UNL1       -0.1554
      7 C          64.4900   91.9266   12.6346 C.cat   1  UNL1        0.3804
      8 N          63.6492   91.9952   11.3943 N.2     1  UNL1       -0.0723
      9 C          62.9282   90.7729   10.9084 C.2     1  UNL1        0.1911
     10 C          63.0479   89.4821   11.6628 C.2     1  UNL1        0.0527
     11 C          62.1990   88.5330   10.8698 C.ar    1  UNL1        0.0188
     12 C          61.6636   89.3497    9.7313 C.ar    1  UNL1        0.0983
     13 N          60.7590   88.7176    8.7153 N.ar    1  UNL1       -0.2399
     14 C          60.3900   87.2689    8.8378 C.ar    1  UNL1        0.1524
     15 C          60.9254   86.4522    9.9764 C.ar    1  UNL1        0.0205
     16 C          61.8300   87.0843   10.9924 C.ar    1  UNL1        0.0005
     17 C          62.1569   85.9845   11.9587 C.3     1  UNL1        0.1205
     18 N          62.9883   85.8779   13.2026 N.am    1  UNL1       -0.2683
     19 C          63.8793   89.3755   12.9068 C.3     1  UNL1        0.1964
     20 C          59.4854   86.6369    7.8218 C.3     1  UNL1        0.4348
     21 F          58.5809   86.0048    6.8057 F       1  UNL1       -0.1644
     22 F          58.6188   87.8611    7.8317 F       1  UNL1       -0.1644
     23 F          60.3520   85.4126    7.8118 F       1  UNL1       -0.1644
     24 N          65.2110   93.1489   13.1204 N.pl3   1  UNL1       -0.2203
     25 H          64.7660   93.7678   13.7435 H       1  UNL1        0.2456
     26 C          66.6100   93.4283   12.6571 C.3     1  UNL1        0.1927
     27 C          66.8419   94.1242   11.3487 C.ar    1  UNL1        0.0412
     28 C          66.4033   95.5473   11.1680 C.ar    1  UNL1        0.1391
     29 F          65.7328   96.2743   12.2958 F       1  UNL1       -0.2044
     30 C          66.6351   96.2432    9.8597 C.ar    1  UNL1        0.0325
     31 C          67.3056   95.5162    8.7319 C.ar    1  UNL1        0.0389
     32 C          67.7442   94.0932    8.9125 C.ar    1  UNL1        0.1346
     33 C          67.5124   93.3972   10.2209 C.ar    1  UNL1        0.0168
     34 C          68.0497   92.0016   10.1052 C.3     1  UNL1        0.0766
     35 C          68.6137   91.8349    8.7252 C.3     1  UNL1        0.2101
     36 O          68.4249   93.1277    7.9881 O.3     1  UNL1       -0.4754
     37 C          62.9654   84.4987   13.7919 C.3     1  UNL1        0.1662
     38 C          63.2684   83.3095   12.9293 C.3     1  UNL1        0.3381
     39 F          62.2881   82.8743   11.8808 F       1  UNL1       -0.1965
     40 F          64.5518   82.5556   13.1154 F       1  UNL1       -0.1965
@<TRIPOS>BOND
     1     1     2    2
     2     2     3    1
     3     3     4    1
     4     4     5    2
     5     5     6    1
     6     6     7    1
     7     7    24    1
     8    24    26    1
     9    26    27    1
    10    27    28   ar
    11    28    29    1
    12    28    30   ar
    13    30    31   ar
    14    31    32   ar
    15    32    33   ar
    16    33    34    1
    17    34    35    1
    18    35    36    1
    19     7     8    2
    20     8     9    1
    21     9    10    2
    22    10    11    1
    23    11    12   ar
    24    12    13   ar
    25    13    14   ar
    26    14    20    1
    27    20    21    1
    28    20    22    1
    29    20    23    1
    30    14    15   ar
    31    15    16   ar
    32    16    17    1
    33    17    18    1
    34    18    37    1
    35    37    38    1
    36    38    39    1
    37    38    40    1
    38    10    19    1
    39    18     2   am
    40    19     3    1
    41    19     6    1
    42    33    27   ar
    43    16    11   ar
    44    36    32    1
    45    24    25    1
@<TRIPOS>MOLECULE
*****
 40 45 0 0 0
SMALL
GASTEIGER

@<TRIPOS>ATOM
      1 O          64.3363   83.7013   13.9313 O.2     1  UNL1       -0.2726
      2 C          63.6913   84.8176   13.1647 C.2     1  UNL1        0.2521
      3 C          63.9628   86.1623   13.7714 C.3     1  UNL1        0.2204
      4 N          64.8084   86.1925   15.0100 N.2     1  UNL1       -0.2277
      5 C          64.9497   87.6225   15.4400 C.2     1  UNL1        0.2413
      6 N          64.1915   88.4762   14.4673 N.pl3   1  UNL1       -0.1554
      7 C          64.0218   89.9670   14.4528 C.cat   1  UNL1        0.3804
      8 N          63.2043   90.5829   13.3563 N.2     1  UNL1       -0.0723
      9 C          62.5789   89.7120   12.3074 C.2     1  UNL1        0.1911
     10 C          62.7709   88.2252   12.3549 C.2     1  UNL1        0.0527
     11 C          62.0057   87.7349   11.1615 C.ar    1  UNL1        0.0188
     12 C          61.4394   88.9713   10.5287 C.ar    1  UNL1        0.0983
     13 N          60.6017   88.8630    9.2892 N.ar    1  UNL1       -0.2399
     14 C          60.3301   87.5183    8.6826 C.ar    1  UNL1        0.1524
     15 C          60.8964   86.2819    9.3154 C.ar    1  UNL1        0.0205
     16 C          61.7342   86.3902   10.5549 C.ar    1  UNL1        0.0005
     17 C          62.1154   84.9787   10.8903 C.3     1  UNL1        0.1205
     18 N          62.9261   84.3273   11.9713 N.am    1  UNL1       -0.2683
     19 C          63.5816   87.5738   13.4359 C.3     1  UNL1        0.1964
     20 C          59.4923   87.4101    7.4430 C.3     1  UNL1        0.4348
     21 F          58.6545   87.3018    6.2036 F       1  UNL1       -0.1644
     22 F          59.3231   88.9004    7.4272 F       1  UNL1       -0.1644
     23 F          59.6616   85.9198    7.4588 F       1  UNL1       -0.1644
     24 N          64.6472   90.8380   15.5017 N.pl3   1  UNL1       -0.2203
     25 H          64.6005   90.5772   16.4499 H       1  UNL1        0.2456
     26 C          65.3436   92.1062   15.1060 C.3     1  UNL1        0.1927
     27 C          66.4898   92.0623   14.1395 C.ar    1  UNL1        0.0412
     28 C          67.8787   91.7879   14.6351 C.ar    1  UNL1        0.1391
     29 F          68.1213   91.5573   16.0973 F       1  UNL1       -0.2044
     30 C          69.0249   91.7440   13.6686 C.ar    1  UNL1        0.0325
     31 C          68.7823   91.9746   12.2064 C.ar    1  UNL1        0.0389
     32 C          67.3934   92.2490   11.7108 C.ar    1  UNL1        0.1346
     33 C          66.2472   92.2929   12.6773 C.ar    1  UNL1        0.0168
     34 C          64.9971   92.5837   11.9010 C.3     1  UNL1        0.0766
     35 C          65.3708   92.7196   10.4546 C.3     1  UNL1        0.2101
     36 O          66.8518   92.5127   10.3371 O.3     1  UNL1       -0.4754
     37 C          62.9854   82.8357   11.8245 C.3     1  UNL1        0.1662
     38 C          63.6278   82.2262   10.6139 C.3     1  UNL1        0.3381
     39 F          64.7113   82.9662    9.8870 F       1  UNL1       -0.1965
     40 F          63.1867   80.8766   10.1301 F       1  UNL1       -0.1965
@<TRIPOS>BOND
     1     1     2    2
     2     2     3    1
     3     3     4    1
     4     4     5    2
     5     5     6    1
     6     6     7    1
     7     7    24    1
     8    24    26    1
     9    26    27    1
    10    27    28   ar
    11    28    29    1
    12    28    30   ar
    13    30    31   ar
    14    31    32   ar
    15    32    33   ar
    16    33    34    1
    17    34    35    1
    18    35    36    1
    19     7     8    2
    20     8     9    1
    21     9    10    2
    22    10    11    1
    23    11    12   ar
    24    12    13   ar
    25    13    14   ar
    26    14    20    1
    27    20    21    1
    28    20    22    1
    29    20    23    1
    30    14    15   ar
    31    15    16   ar
    32    16    17    1
    33    17    18    1
    34    18    37    1
    35    37    38    1
    36    38    39    1
    37    38    40    1
    38    10    19    1
    39    18     2   am
    40    19     3    1
    41    19     6    1
    42    33    27   ar
    43    16    11   ar
    44    36    32    1
    45    24    25    1
@<TRIPOS>MOLECULE
*****
 40 45 0 0 0
SMALL
GASTEIGER

@<TRIPOS>ATOM
      1 O          64.5861   83.8148   14.9704 O.2     1  UNL1       -0.2726
      2 C          64.0451   84.5637   13.7887 C.2     1  UNL1        0.2521
      3 C          63.9643   86.0414   14.0335 C.3     1  UNL1        0.2204
      4 N          64.4195   86.5353   15.3747 N.2     1  UNL1       -0.2277
      5 C          64.2533   88.0258   15.4006 C.2     1  UNL1        0.2413
      6 N          63.6954   88.4531   14.0754 N.pl3   1  UNL1       -0.1554
      7 C          63.3495   89.8329   13.5978 C.cat   1  UNL1        0.3804
      8 N          62.7997   89.9927   12.2114 N.2     1  UNL1       -0.0723
      9 C          62.6073   88.7889   11.3375 C.2     1  UNL1        0.1911
     10 C          62.9647   87.4252   11.8500 C.2     1  UNL1        0.0527
     11 C          62.6314   86.5207   10.7007 C.ar    1  UNL1        0.0188
     12 C          62.1129   87.4315    9.6276 C.ar    1  UNL1        0.0983
     13 N          61.6752   86.8647    8.3096 N.ar    1  UNL1       -0.2399
     14 C          61.7560   85.3870    8.0648 C.ar    1  UNL1        0.1524
     15 C          62.2745   84.4762    9.1379 C.ar    1  UNL1        0.0205
     16 C          62.7122   85.0431   10.4558 C.ar    1  UNL1        0.0005
     17 C          63.1598   83.8578   11.2588 C.3     1  UNL1        0.1205
     18 N          63.7119   83.6592   12.6393 N.am    1  UNL1       -0.2683
     19 C          63.5168   87.2267   13.2305 C.3     1  UNL1        0.1964
     20 C          61.3182   84.8201    6.7467 C.3     1  UNL1        0.4348
     21 F          60.8805   84.2533    5.4288 F       1  UNL1       -0.1644
     22 F          62.7427   84.4844    6.4180 F       1  UNL1       -0.1644
     23 F          59.8938   85.1559    7.0755 F       1  UNL1       -0.1644
     24 N          63.5419   91.0367   14.4717 N.pl3   1  UNL1       -0.2203
     25 H          63.2284   91.0228   15.4048 H       1  UNL1        0.2456
     26 C          64.2119   92.2619   13.9239 C.3     1  UNL1        0.1927
     27 C          65.6298   92.1884   13.4400 C.ar    1  UNL1        0.0412
     28 C          65.9159   92.0590   11.9732 C.ar    1  UNL1        0.1391
     29 F          64.7840   92.0032   10.9904 F       1  UNL1       -0.2044
     30 C          67.3337   91.9855   11.4892 C.ar    1  UNL1        0.0325
     31 C          68.4656   92.0414   12.4720 C.ar    1  UNL1        0.0389
     32 C          68.1795   92.1707   13.9388 C.ar    1  UNL1        0.1346
     33 C          66.7616   92.2442   14.4227 C.ar    1  UNL1        0.0168
     34 C          66.7878   92.3687   15.9173 C.3     1  UNL1        0.0766
     35 C          68.2220   92.3720   16.3571 C.3     1  UNL1        0.2101
     36 O          69.0821   92.2497   15.1342 O.3     1  UNL1       -0.4754
     37 C          63.9978   82.2180   12.9414 C.3     1  UNL1        0.1662
     38 C          62.8804   81.2984   13.3357 C.3     1  UNL1        0.3381
     39 F          62.8287   79.9030   12.7878 F       1  UNL1       -0.1965
     40 F          61.8147   81.7741   14.2781 F       1  UNL1       -0.1965
@<TRIPOS>BOND
     1     1     2    2
     2     2     3    1
     3     3     4    1
     4     4     5    2
     5     5     6    1
     6     6     7    1
     7     7    24    1
     8    24    26    1
     9    26    27    1
    10    27    28   ar
    11    28    29    1
    12    28    30   ar
    13    30    31   ar
    14    31    32   ar
    15    32    33   ar
    16    33    34    1
    17    34    35    1
    18    35    36    1
    19     7     8    2
    20     8     9    1
    21     9    10    2
    22    10    11    1
    23    11    12   ar
    24    12    13   ar
    25    13    14   ar
    26    14    20    1
    27    20    21    1
    28    20    22    1
    29    20    23    1
    30    14    15   ar
    31    15    16   ar
    32    16    17    1
    33    17    18    1
    34    18    37    1
    35    37    38    1
    36    38    39    1
    37    38    40    1
    38    10    19    1
    39    18     2   am
    40    19     3    1
    41    19     6    1
    42    33    27   ar
    43    16    11   ar
    44    36    32    1
    45    24    25    1
