@<TRIPOS>MOLECULE
*****
 11 12 0 0 0
SMALL
GASTEIGER

@<TRIPOS>ATOM
      1 C          67.0359   91.5629   14.7007 C.ar    1  UNL1        0.0207
      2 C          65.5541   91.4832   14.9196 C.ar    1  UNL1        0.0989
      3 N          64.6117   91.8286   13.8049 N.ar    1  UNL1       -0.2423
      4 C          65.1510   92.2538   12.4714 C.ar    1  UNL1        0.0993
      5 C          66.6328   92.3335   12.2526 C.ar    1  UNL1        0.0252
      6 C          67.5752   91.9880   13.3672 C.ar    1  UNL1        0.0036
      7 C          67.1722   92.7587   10.9190 C.ar    1  UNL1        0.0310
      8 C          68.1984   92.0242   10.1081 C.ar    1  UNL1        0.0071
      9 C          68.4406   92.8045    8.8502 C.ar    1  UNL1        0.0075
     10 C          67.5641   94.0214    8.8836 C.ar    1  UNL1        0.0354
     11 S          66.7802   93.9930   10.1622 S.2     1  UNL1       -0.0864
@<TRIPOS>BOND
     1     1     2   ar
     2     2     3   ar
     3     3     4   ar
     4     4     5   ar
     5     5     7    1
     6     7     8   ar
     7     8     9   ar
     8     9    10   ar
     9    10    11   ar
    10     5     6   ar
    11     6     1   ar
    12    11     7   ar
@<TRIPOS>MOLECULE
*****
 11 12 0 0 0
SMALL
GASTEIGER

@<TRIPOS>ATOM
      1 C          63.3004   90.9456   11.6840 C.ar    1  UNL1        0.0207
      2 C          63.4702   90.9376   13.1743 C.ar    1  UNL1        0.0989
      3 N          64.6292   91.6545   13.8010 N.ar    1  UNL1       -0.2423
      4 C          65.6184   92.3794   12.9374 C.ar    1  UNL1        0.0993
      5 C          65.4486   92.3875   11.4471 C.ar    1  UNL1        0.0252
      6 C          64.2896   91.6706   10.8204 C.ar    1  UNL1        0.0036
      7 C          66.4379   93.1124   10.5834 C.ar    1  UNL1        0.0310
      8 C          67.6292   92.5033    9.9053 C.ar    1  UNL1        0.0071
      9 C          68.3371   93.5881    9.1490 C.ar    1  UNL1        0.0075
     10 C          67.5832   94.8678    9.3596 C.ar    1  UNL1        0.0354
     11 S          66.4095   94.5737   10.2461 S.2     1  UNL1       -0.0864
@<TRIPOS>BOND
     1     1     2   ar
     2     2     3   ar
     3     3     4   ar
     4     4     5   ar
     5     5     7    1
     6     7     8   ar
     7     8     9   ar
     8     9    10   ar
     9    10    11   ar
    10     5     6   ar
    11     6     1   ar
    12    11     7   ar
@<TRIPOS>MOLECULE
*****
 11 12 0 0 0
SMALL
GASTEIGER

@<TRIPOS>ATOM
      1 C          63.0678   85.2941    8.5711 C.ar    1  UNL1        0.0207
      2 C          62.2085   86.4739    8.9171 C.ar    1  UNL1        0.0989
      3 N          61.6189   86.5950   10.2910 N.ar    1  UNL1       -0.2423
      4 C          61.8885   85.5364   11.3189 C.ar    1  UNL1        0.0993
      5 C          62.7478   84.3567   10.9729 C.ar    1  UNL1        0.0252
      6 C          63.3374   84.2355    9.5990 C.ar    1  UNL1        0.0036
      7 C          63.0175   83.2980   12.0008 C.ar    1  UNL1        0.0310
      8 C          62.8923   81.8174   11.7954 C.ar    1  UNL1        0.0071
      9 C          63.2571   81.1383   13.0821 C.ar    1  UNL1        0.0075
     10 C          63.6078   82.1993   14.0829 C.ar    1  UNL1        0.0354
     11 S          63.4597   83.5340   13.4146 S.2     1  UNL1       -0.0864
@<TRIPOS>BOND
     1     1     2   ar
     2     2     3   ar
     3     3     4   ar
     4     4     5   ar
     5     5     7    1
     6     7     8   ar
     7     8     9   ar
     8     9    10   ar
     9    10    11   ar
    10     5     6   ar
    11     6     1   ar
    12    11     7   ar
@<TRIPOS>MOLECULE
*****
 11 12 0 0 0
SMALL
GASTEIGER

@<TRIPOS>ATOM
      1 C          63.4332   90.9222   11.7786 C.ar    1  UNL1        0.0207
      2 C          62.8936   89.6346   12.3269 C.ar    1  UNL1        0.0989
      3 N          63.4658   89.0581   13.5879 N.ar    1  UNL1       -0.2423
      4 C          64.5776   89.7693   14.3007 C.ar    1  UNL1        0.0993
      5 C          65.1172   91.0570   13.7524 C.ar    1  UNL1        0.0252
      6 C          64.5450   91.6335   12.4913 C.ar    1  UNL1        0.0036
      7 C          66.2290   91.7683   14.4651 C.ar    1  UNL1        0.0310
      8 C          66.1298   92.4449   15.8002 C.ar    1  UNL1        0.0071
      9 C          67.4746   93.0226   16.1282 C.ar    1  UNL1        0.0075
     10 C          68.4051   92.7030   14.9958 C.ar    1  UNL1        0.0354
     11 S          67.6352   91.9277   13.9680 S.2     1  UNL1       -0.0864
@<TRIPOS>BOND
     1     1     2   ar
     2     2     3   ar
     3     3     4   ar
     4     4     5   ar
     5     5     7    1
     6     7     8   ar
     7     8     9   ar
     8     9    10   ar
     9    10    11   ar
    10     5     6   ar
    11     6     1   ar
    12    11     7   ar
@<TRIPOS>MOLECULE
*****
 11 12 0 0 0
SMALL
GASTEIGER

@<TRIPOS>ATOM
      1 C          64.5912   85.9379   15.2931 C.ar    1  UNL1        0.0207
      2 C          63.4495   85.9014   16.2652 C.ar    1  UNL1        0.0989
      3 N          62.3121   84.9473   16.0507 N.ar    1  UNL1       -0.2423
      4 C          62.3164   84.0297   14.8642 C.ar    1  UNL1        0.0993
      5 C          63.4582   84.0661   13.8921 C.ar    1  UNL1        0.0252
      6 C          64.5956   85.0202   14.1066 C.ar    1  UNL1        0.0036
      7 C          63.4626   83.1485   12.7055 C.ar    1  UNL1        0.0310
      8 C          64.2142   83.3658   11.4257 C.ar    1  UNL1        0.0071
      9 C          63.9324   82.2041   10.5196 C.ar    1  UNL1        0.0075
     10 C          63.0065   81.2688   11.2395 C.ar    1  UNL1        0.0354
     11 S          62.7163   81.8525   12.5904 S.2     1  UNL1       -0.0864
@<TRIPOS>BOND
     1     1     2   ar
     2     2     3   ar
     3     3     4   ar
     4     4     5   ar
     5     5     7    1
     6     7     8   ar
     7     8     9   ar
     8     9    10   ar
     9    10    11   ar
    10     5     6   ar
    11     6     1   ar
    12    11     7   ar
@<TRIPOS>MOLECULE
*****
 11 12 0 0 0
SMALL
GASTEIGER

@<TRIPOS>ATOM
      1 C          67.9037   93.4349    9.2419 C.ar    1  UNL1        0.0207
      2 C          67.6975   94.9203    9.2732 C.ar    1  UNL1        0.0989
      3 N          66.8715   95.5401   10.3610 N.ar    1  UNL1       -0.2423
      4 C          66.2516   94.6745   11.4176 C.ar    1  UNL1        0.0993
      5 C          66.4577   93.1891   11.3864 C.ar    1  UNL1        0.0252
      6 C          67.2838   92.5693   10.2985 C.ar    1  UNL1        0.0036
      7 C          65.8378   92.3235   12.4430 C.ar    1  UNL1        0.0310
      8 C          64.5058   91.6397   12.3529 C.ar    1  UNL1        0.0071
      9 C          64.2858   90.8832   13.6294 C.ar    1  UNL1        0.0075
     10 C          65.4819   91.0995   14.5084 C.ar    1  UNL1        0.0354
     11 S          66.4411   91.9896   13.7751 S.2     1  UNL1       -0.0864
@<TRIPOS>BOND
     1     1     2   ar
     2     2     3   ar
     3     3     4   ar
     4     4     5   ar
     5     5     7    1
     6     7     8   ar
     7     8     9   ar
     8     9    10   ar
     9    10    11   ar
    10     5     6   ar
    11     6     1   ar
    12    11     7   ar
@<TRIPOS>MOLECULE
*****
 11 12 0 0 0
SMALL
GASTEIGER

@<TRIPOS>ATOM
      1 C          61.2213   89.1392    9.6298 C.ar    1  UNL1        0.0207
      2 C          60.0981   88.9561    8.6527 C.ar    1  UNL1        0.0989
      3 N          59.7580   87.5847    8.1492 N.ar    1  UNL1       -0.2423
      4 C          60.5411   86.3963    8.6229 C.ar    1  UNL1        0.0993
      5 C          61.6643   86.5793    9.6001 C.ar    1  UNL1        0.0252
      6 C          62.0044   87.9508   10.1035 C.ar    1  UNL1        0.0036
      7 C          62.4474   85.3909   10.0739 C.ar    1  UNL1        0.0310
      8 C          63.3033   84.5020    9.2209 C.ar    1  UNL1        0.0071
      9 C          63.8970   83.4445   10.1036 C.ar    1  UNL1        0.0075
     10 C          63.4081   83.6798   11.5021 C.ar    1  UNL1        0.0354
     11 S          62.5123   84.8828   11.4837 S.2     1  UNL1       -0.0864
@<TRIPOS>BOND
     1     1     2   ar
     2     2     3   ar
     3     3     4   ar
     4     4     5   ar
     5     5     7    1
     6     7     8   ar
     7     8     9   ar
     8     9    10   ar
     9    10    11   ar
    10     5     6   ar
    11     6     1   ar
    12    11     7   ar
@<TRIPOS>MOLECULE
*****
 11 12 0 0 0
SMALL
GASTEIGER

@<TRIPOS>ATOM
      1 C          62.9698   90.8247   11.1394 C.ar    1  UNL1        0.0207
      2 C          63.5261   90.1604   12.3638 C.ar    1  UNL1        0.0989
      3 N          63.3089   88.6928   12.5850 N.ar    1  UNL1       -0.2423
      4 C          62.5354   87.8895   11.5818 C.ar    1  UNL1        0.0993
      5 C          61.9791   88.5538   10.3574 C.ar    1  UNL1        0.0252
      6 C          62.1963   90.0215   10.1362 C.ar    1  UNL1        0.0036
      7 C          61.2056   87.7506    9.3542 C.ar    1  UNL1        0.0310
      8 C          61.5942   86.4070    8.8120 C.ar    1  UNL1        0.0071
      9 C          60.5365   85.9759    7.8397 C.ar    1  UNL1        0.0075
     10 C          59.4941   87.0530    7.7810 C.ar    1  UNL1        0.0354
     11 S          59.9076   88.1497    8.7170 S.2     1  UNL1       -0.0864
@<TRIPOS>BOND
     1     1     2   ar
     2     2     3   ar
     3     3     4   ar
     4     4     5   ar
     5     5     7    1
     6     7     8   ar
     7     8     9   ar
     8     9    10   ar
     9    10    11   ar
    10     5     6   ar
    11     6     1   ar
    12    11     7   ar
@<TRIPOS>MOLECULE
*****
 11 12 0 0 0
SMALL
GASTEIGER

@<TRIPOS>ATOM
      1 C          60.6654   86.9293    8.6535 C.ar    1  UNL1        0.0207
      2 C          60.1109   87.8113    9.7327 C.ar    1  UNL1        0.0989
      3 N          60.4869   87.5710   11.1648 N.ar    1  UNL1       -0.2423
      4 C          61.4175   86.4488   11.5177 C.ar    1  UNL1        0.0993
      5 C          61.9720   85.5668   10.4385 C.ar    1  UNL1        0.0252
      6 C          61.5959   85.8071    9.0064 C.ar    1  UNL1        0.0036
      7 C          62.9026   84.4445   10.7914 C.ar    1  UNL1        0.0310
      8 C          63.7491   83.6653    9.8289 C.ar    1  UNL1        0.0071
      9 C          64.5197   82.6436   10.6113 C.ar    1  UNL1        0.0075
     10 C          64.1495   82.7913   12.0574 C.ar    1  UNL1        0.0354
     11 S          63.1500   83.9043   12.1687 S.2     1  UNL1       -0.0864
@<TRIPOS>BOND
     1     1     2   ar
     2     2     3   ar
     3     3     4   ar
     4     4     5   ar
     5     5     7    1
     6     7     8   ar
     7     8     9   ar
     8     9    10   ar
     9    10    11   ar
    10     5     6   ar
    11     6     1   ar
    12    11     7   ar
