@<TRIPOS>MOLECULE
*****
 32 35 0 0 0
SMALL
GASTEIGER

@<TRIPOS>ATOM
      1 O          64.5689   89.3979   14.9166 O.2     1  UNL1       -0.2742
      2 C          63.8751   89.0501   13.6329 C.2     1  UNL1        0.2335
      3 N          63.7150   87.6135   13.2322 N.am    1  UNL1       -0.2755
      4 C          63.0211   87.2657   11.9486 C.3     1  UNL1        0.1148
      5 C          62.8611   85.8291   11.5479 C.3     1  UNL1        0.1123
      6 N          63.3949   84.7403   12.4308 N.pl3   1  UNL1       -0.3041
      7 C          64.0888   85.0881   13.7144 C.3     1  UNL1        0.1123
      8 C          64.2488   86.5247   14.1151 C.3     1  UNL1        0.1148
      9 C          63.2349   83.3037   12.0302 C.ar    1  UNL1        0.0479
     10 C          62.6479   82.3168   12.9953 C.ar    1  UNL1        0.0145
     11 C          62.4878   80.8802   12.5946 C.ar    1  UNL1        0.0051
     12 C          62.9148   80.4305   11.2288 C.ar    1  UNL1        0.0715
     13 C          63.5018   81.4173   10.2637 C.ar    1  UNL1        0.0051
     14 C          63.6619   82.8540   10.6643 C.ar    1  UNL1        0.0145
     15 C          62.7548   78.9939   10.8281 C.3     1  UNL1        0.4186
     16 F          62.5947   77.5573   10.4274 F       1  UNL1       -0.1659
     17 F          63.0693   79.3553    9.4067 F       1  UNL1       -0.1659
     18 F          62.4403   78.6325   12.2495 F       1  UNL1       -0.1659
     19 C          63.3412   90.1389   12.7500 C.3     1  UNL1        0.1226
     20 C          64.2284   91.2787   12.3451 C.ar    1  UNL1       -0.0097
     21 C          64.2690   91.7257   10.9138 C.ar    1  UNL1       -0.0026
     22 C          65.1561   92.8654   10.5090 C.ar    1  UNL1        0.0111
     23 C          66.0026   93.5582   11.5353 C.ar    1  UNL1        0.0577
     24 CL         66.8897   94.6980   11.1304 Cl      1  UNL1       -0.0822
     25 C          65.9620   93.1113   12.9666 C.ar    1  UNL1        0.0111
     26 C          65.0749   91.9715   13.3715 C.ar    1  UNL1       -0.0026
     27 C          61.9204   90.0880   12.2721 C.ar    1  UNL1        0.0094
     28 C          61.5891   90.4769   10.8618 C.ar    1  UNL1       -0.0004
     29 C          60.1681   90.4259   10.3838 C.ar    1  UNL1        0.0204
     30 C          59.0785   89.9861   11.3162 C.ar    1  UNL1        0.0989
     31 N          59.4099   89.5972   12.7265 N.ar    1  UNL1       -0.2426
     32 C          60.8307   89.6481   13.2045 C.ar    1  UNL1        0.0954
@<TRIPOS>BOND
     1     1     2    2
     2    19     2    1
     3    19    20    1
     4    20    21   ar
     5    21    22   ar
     6    22    23   ar
     7    23    24    1
     8    23    25   ar
     9    25    26   ar
    10    19    27    1
    11    27    28   ar
    12    28    29   ar
    13    29    30   ar
    14    30    31   ar
    15    31    32   ar
    16     2     3   am
    17     3     4    1
    18     4     5    1
    19     5     6    1
    20     6     9    1
    21     9    10   ar
    22    10    11   ar
    23    11    12   ar
    24    12    15    1
    25    15    16    1
    26    15    17    1
    27    15    18    1
    28    12    13   ar
    29    13    14   ar
    30     6     7    1
    31     7     8    1
    32    26    20   ar
    33    32    27   ar
    34     8     3    1
    35    14     9   ar
@<TRIPOS>MOLECULE
*****
 32 35 0 0 0
SMALL
GASTEIGER

@<TRIPOS>ATOM
      1 O          63.5677   88.9502   16.8112 O.2     1  UNL1       -0.2742
      2 C          63.7338   88.7840   15.3297 C.2     1  UNL1        0.2335
      3 N          63.5930   87.4268   14.7068 N.am    1  UNL1       -0.2755
      4 C          63.7591   87.2606   13.2253 C.3     1  UNL1        0.1148
      5 C          63.6184   85.9033   12.6024 C.3     1  UNL1        0.1123
      6 N          63.3116   84.7122   13.4610 N.pl3   1  UNL1       -0.3041
      7 C          63.1455   84.8784   14.9424 C.3     1  UNL1        0.1123
      8 C          63.2862   86.2357   15.5654 C.3     1  UNL1        0.1148
      9 C          63.1708   83.3550   12.8381 C.ar    1  UNL1        0.0479
     10 C          63.5803   83.1384   11.4114 C.ar    1  UNL1        0.0145
     11 C          63.4396   81.7811   10.7885 C.ar    1  UNL1        0.0051
     12 C          62.8894   80.6404   11.5922 C.ar    1  UNL1        0.0715
     13 C          62.4799   80.8570   13.0189 C.ar    1  UNL1        0.0051
     14 C          62.6206   82.2143   13.6418 C.ar    1  UNL1        0.0145
     15 C          62.7486   79.2832   10.9694 C.3     1  UNL1        0.4186
     16 F          62.6079   77.9259   10.3464 F       1  UNL1       -0.1659
     17 F          62.9607   79.8843    9.6116 F       1  UNL1       -0.1659
     18 F          62.5365   78.6821   12.3271 F       1  UNL1       -0.1659
     19 C          64.0406   89.9751   14.4711 C.3     1  UNL1        0.1226
     20 C          65.1288   90.9272   14.8705 C.ar    1  UNL1       -0.0097
     21 C          64.8925   91.9165   15.9729 C.ar    1  UNL1       -0.0026
     22 C          65.9807   92.8685   16.3722 C.ar    1  UNL1        0.0111
     23 C          67.3052   92.8312   15.6691 C.ar    1  UNL1        0.0577
     24 CL         68.3934   93.7832   16.0685 Cl      1  UNL1       -0.0822
     25 C          67.5415   91.8419   14.5667 C.ar    1  UNL1        0.0111
     26 C          66.4533   90.8899   14.1674 C.ar    1  UNL1       -0.0026
     27 C          63.2592   90.2142   13.2133 C.ar    1  UNL1        0.0094
     28 C          63.9163   90.8709   12.0355 C.ar    1  UNL1       -0.0004
     29 C          63.1349   91.1099   10.7776 C.ar    1  UNL1        0.0204
     30 C          61.6964   90.6923   10.6975 C.ar    1  UNL1        0.0989
     31 N          61.0394   90.0356   11.8752 N.ar    1  UNL1       -0.2426
     32 C          61.8207   89.7965   13.1331 C.ar    1  UNL1        0.0954
@<TRIPOS>BOND
     1     1     2    2
     2    19     2    1
     3    19    20    1
     4    20    21   ar
     5    21    22   ar
     6    22    23   ar
     7    23    24    1
     8    23    25   ar
     9    25    26   ar
    10    19    27    1
    11    27    28   ar
    12    28    29   ar
    13    29    30   ar
    14    30    31   ar
    15    31    32   ar
    16     2     3   am
    17     3     4    1
    18     4     5    1
    19     5     6    1
    20     6     9    1
    21     9    10   ar
    22    10    11   ar
    23    11    12   ar
    24    12    15    1
    25    15    16    1
    26    15    17    1
    27    15    18    1
    28    12    13   ar
    29    13    14   ar
    30     6     7    1
    31     7     8    1
    32    26    20   ar
    33    32    27   ar
    34     8     3    1
    35    14     9   ar
@<TRIPOS>MOLECULE
*****
 32 35 0 0 0
SMALL
GASTEIGER

@<TRIPOS>ATOM
      1 O          63.6616   89.8914   16.8585 O.2     1  UNL1       -0.2742
      2 C          63.9769   89.5049   15.4438 C.2     1  UNL1        0.2335
      3 N          63.7821   88.0877   14.9924 N.am    1  UNL1       -0.2755
      4 C          64.0974   87.7012   13.5777 C.3     1  UNL1        0.1148
      5 C          63.9026   86.2841   13.1263 C.3     1  UNL1        0.1123
      6 N          63.3926   85.2535   14.0895 N.pl3   1  UNL1       -0.3041
      7 C          63.0774   85.6400   15.5041 C.3     1  UNL1        0.1123
      8 C          63.2721   87.0571   15.9556 C.3     1  UNL1        0.1148
      9 C          63.1979   83.8363   13.6381 C.ar    1  UNL1        0.0479
     10 C          63.7847   83.3764   12.3364 C.ar    1  UNL1        0.0145
     11 C          63.5899   81.9593   11.8850 C.ar    1  UNL1        0.0051
     12 C          62.8084   81.0020   12.7352 C.ar    1  UNL1        0.0715
     13 C          62.2216   81.4619   14.0368 C.ar    1  UNL1        0.0051
     14 C          62.4163   82.8791   14.4883 C.ar    1  UNL1        0.0145
     15 C          62.6137   79.5849   12.2838 C.3     1  UNL1        0.4186
     16 F          62.4189   78.1677   11.8324 F       1  UNL1       -0.1659
     17 F          62.3638   79.1673   13.7026 F       1  UNL1       -0.1659
     18 F          62.8636   80.0025   10.8650 F       1  UNL1       -0.1659
     19 C          64.4868   90.5355   14.4806 C.3     1  UNL1        0.1226
     20 C          65.6817   91.3692   14.8373 C.ar    1  UNL1       -0.0097
     21 C          65.6102   92.3287   15.9881 C.ar    1  UNL1       -0.0026
     22 C          66.8051   93.1623   16.3447 C.ar    1  UNL1        0.0111
     23 C          68.0714   93.0366   15.5507 C.ar    1  UNL1        0.0577
     24 CL         69.2663   93.8703   15.9074 Cl      1  UNL1       -0.0822
     25 C          68.1429   92.0771   14.3999 C.ar    1  UNL1        0.0111
     26 C          66.9481   91.2434   14.0432 C.ar    1  UNL1       -0.0026
     27 C          63.8020   90.7324   13.1607 C.ar    1  UNL1        0.0094
     28 C          64.4980   91.4735   12.0578 C.ar    1  UNL1       -0.0004
     29 C          63.8130   91.6704   10.7378 C.ar    1  UNL1        0.0204
     30 C          62.4322   91.1261   10.5208 C.ar    1  UNL1        0.0989
     31 N          61.7363   90.3850   11.6237 N.ar    1  UNL1       -0.2426
     32 C          62.4211   90.1881   12.9436 C.ar    1  UNL1        0.0954
@<TRIPOS>BOND
     1     1     2    2
     2    19     2    1
     3    19    20    1
     4    20    21   ar
     5    21    22   ar
     6    22    23   ar
     7    23    24    1
     8    23    25   ar
     9    25    26   ar
    10    19    27    1
    11    27    28   ar
    12    28    29   ar
    13    29    30   ar
    14    30    31   ar
    15    31    32   ar
    16     2     3   am
    17     3     4    1
    18     4     5    1
    19     5     6    1
    20     6     9    1
    21     9    10   ar
    22    10    11   ar
    23    11    12   ar
    24    12    15    1
    25    15    16    1
    26    15    17    1
    27    15    18    1
    28    12    13   ar
    29    13    14   ar
    30     6     7    1
    31     7     8    1
    32    26    20   ar
    33    32    27   ar
    34     8     3    1
    35    14     9   ar
@<TRIPOS>MOLECULE
*****
 32 35 0 0 0
SMALL
GASTEIGER

@<TRIPOS>ATOM
      1 O          64.1418   89.1115   15.9255 O.2     1  UNL1       -0.2742
      2 C          63.8732   88.8809   14.4678 C.2     1  UNL1        0.2335
      3 N          63.7122   87.4836   13.9467 N.am    1  UNL1       -0.2755
      4 C          63.4436   87.2530   12.4890 C.3     1  UNL1        0.1148
      5 C          63.2826   85.8557   11.9679 C.3     1  UNL1        0.1123
      6 N          63.3901   84.6889   12.9044 N.pl3   1  UNL1       -0.3041
      7 C          63.6586   84.9195   14.3621 C.3     1  UNL1        0.1123
      8 C          63.8197   86.3168   14.8832 C.3     1  UNL1        0.1148
      9 C          63.2290   83.2917   12.3833 C.ar    1  UNL1        0.0479
     10 C          62.6542   82.2236   13.2660 C.ar    1  UNL1        0.0145
     11 C          62.4932   80.8263   12.7449 C.ar    1  UNL1        0.0051
     12 C          62.9069   80.4970   11.3411 C.ar    1  UNL1        0.0715
     13 C          63.4816   81.5650   10.4585 C.ar    1  UNL1        0.0051
     14 C          63.6427   82.9623   10.9796 C.ar    1  UNL1        0.0145
     15 C          62.7458   79.0997   10.8200 C.3     1  UNL1        0.4186
     16 F          62.5848   77.7023   10.2989 F       1  UNL1       -0.1659
     17 F          62.9964   79.5910    9.4252 F       1  UNL1       -0.1659
     18 F          62.4953   78.6084   12.2149 F       1  UNL1       -0.1659
     19 C          63.7657   90.0477   13.5313 C.3     1  UNL1        0.1226
     20 C          62.7549   90.0293   12.4231 C.ar    1  UNL1       -0.0097
     21 C          63.1965   90.2173   11.0020 C.ar    1  UNL1       -0.0026
     22 C          62.1857   90.1989    9.8939 C.ar    1  UNL1        0.0111
     23 C          60.7333   89.9924   10.2070 C.ar    1  UNL1        0.0577
     24 CL         59.7225   89.9740    9.0988 Cl      1  UNL1       -0.0822
     25 C          60.2917   89.8044   11.6281 C.ar    1  UNL1        0.0111
     26 C          61.3025   89.8228   12.7361 C.ar    1  UNL1       -0.0026
     27 C          64.6690   91.2328   13.7029 C.ar    1  UNL1        0.0094
     28 C          65.1192   92.0126   12.5032 C.ar    1  UNL1       -0.0004
     29 C          66.0226   93.1978   12.6749 C.ar    1  UNL1        0.0204
     30 C          66.4756   93.6031   14.0462 C.ar    1  UNL1        0.0989
     31 N          66.0254   92.8233   15.2458 N.ar    1  UNL1       -0.2426
     32 C          65.1221   91.6382   15.0742 C.ar    1  UNL1        0.0954
@<TRIPOS>BOND
     1     1     2    2
     2    19     2    1
     3    19    20    1
     4    20    21   ar
     5    21    22   ar
     6    22    23   ar
     7    23    24    1
     8    23    25   ar
     9    25    26   ar
    10    19    27    1
    11    27    28   ar
    12    28    29   ar
    13    29    30   ar
    14    30    31   ar
    15    31    32   ar
    16     2     3   am
    17     3     4    1
    18     4     5    1
    19     5     6    1
    20     6     9    1
    21     9    10   ar
    22    10    11   ar
    23    11    12   ar
    24    12    15    1
    25    15    16    1
    26    15    17    1
    27    15    18    1
    28    12    13   ar
    29    13    14   ar
    30     6     7    1
    31     7     8    1
    32    26    20   ar
    33    32    27   ar
    34     8     3    1
    35    14     9   ar
@<TRIPOS>MOLECULE
*****
 32 35 0 0 0
SMALL
GASTEIGER

@<TRIPOS>ATOM
      1 O          59.3049   88.2556   12.3155 O.2     1  UNL1       -0.2742
      2 C          60.6442   88.2655   11.6401 C.2     1  UNL1        0.2335
      3 N          61.7879   89.0179   12.2532 N.am    1  UNL1       -0.2755
      4 C          63.1272   89.0279   11.5777 C.3     1  UNL1        0.1148
      5 C          64.2708   89.7802   12.1909 C.3     1  UNL1        0.1123
      6 N          64.0752   90.5226   13.4795 N.pl3   1  UNL1       -0.3041
      7 C          62.7360   90.5127   14.1550 C.3     1  UNL1        0.1123
      8 C          61.5923   89.7603   13.5418 C.3     1  UNL1        0.1148
      9 C          65.2189   91.2750   14.0927 C.ar    1  UNL1        0.0479
     10 C          65.1416   91.7227   15.5223 C.ar    1  UNL1        0.0145
     11 C          66.2852   92.4751   16.1354 C.ar    1  UNL1        0.0051
     12 C          67.5062   92.7797   15.3191 C.ar    1  UNL1        0.0715
     13 C          67.5835   92.3320   13.8896 C.ar    1  UNL1        0.0051
     14 C          66.4398   91.5796   13.2763 C.ar    1  UNL1        0.0145
     15 C          68.6498   93.5321   15.9322 C.3     1  UNL1        0.4186
     16 F          69.7935   94.2845   16.5454 F       1  UNL1       -0.1659
     17 F          68.1528   94.8000   15.3036 F       1  UNL1       -0.1659
     18 F          69.1469   92.2642   16.5609 F       1  UNL1       -0.1659
     19 C          60.8398   87.5231   10.3514 C.3     1  UNL1        0.1226
     20 C          61.7308   86.3171   10.3085 C.ar    1  UNL1       -0.0097
     21 C          62.4135   85.9342    9.0289 C.ar    1  UNL1       -0.0026
     22 C          63.3044   84.7283    8.9860 C.ar    1  UNL1        0.0111
     23 C          63.5127   83.9053   10.2226 C.ar    1  UNL1        0.0577
     24 CL         64.4037   82.6993   10.1796 Cl      1  UNL1       -0.0822
     25 C          62.8301   84.2882   11.5022 C.ar    1  UNL1        0.0111
     26 C          61.9391   85.4941   11.5451 C.ar    1  UNL1       -0.0026
     27 C          60.1444   87.9866    9.1058 C.ar    1  UNL1        0.0094
     28 C          60.4132   89.3590    8.5633 C.ar    1  UNL1       -0.0004
     29 C          59.7177   89.8225    7.3176 C.ar    1  UNL1        0.0204
     30 C          58.7537   88.9136    6.6145 C.ar    1  UNL1        0.0989
     31 N          58.4849   87.5412    7.1570 N.ar    1  UNL1       -0.2426
     32 C          59.1803   87.0777    8.4026 C.ar    1  UNL1        0.0954
@<TRIPOS>BOND
     1     1     2    2
     2    19     2    1
     3    19    20    1
     4    20    21   ar
     5    21    22   ar
     6    22    23   ar
     7    23    24    1
     8    23    25   ar
     9    25    26   ar
    10    19    27    1
    11    27    28   ar
    12    28    29   ar
    13    29    30   ar
    14    30    31   ar
    15    31    32   ar
    16     2     3   am
    17     3     4    1
    18     4     5    1
    19     5     6    1
    20     6     9    1
    21     9    10   ar
    22    10    11   ar
    23    11    12   ar
    24    12    15    1
    25    15    16    1
    26    15    17    1
    27    15    18    1
    28    12    13   ar
    29    13    14   ar
    30     6     7    1
    31     7     8    1
    32    26    20   ar
    33    32    27   ar
    34     8     3    1
    35    14     9   ar
@<TRIPOS>MOLECULE
*****
 32 35 0 0 0
SMALL
GASTEIGER

@<TRIPOS>ATOM
      1 O          62.3234   91.3616   10.5027 O.2     1  UNL1       -0.2742
      2 C          63.2310   90.6963   11.4946 C.2     1  UNL1        0.2335
      3 N          63.0828   89.2315   11.7819 N.am    1  UNL1       -0.2755
      4 C          63.9904   88.5662   12.7738 C.3     1  UNL1        0.1148
      5 C          63.8422   87.1015   13.0611 C.3     1  UNL1        0.1123
      6 N          62.7865   86.3020   12.3565 N.pl3   1  UNL1       -0.3041
      7 C          61.8790   86.9673   11.3647 C.3     1  UNL1        0.1123
      8 C          62.0271   88.4321   11.0774 C.3     1  UNL1        0.1148
      9 C          62.6384   84.8373   12.6438 C.ar    1  UNL1        0.0479
     10 C          62.6712   83.8453   11.5191 C.ar    1  UNL1        0.0145
     11 C          62.5230   82.3806   11.8064 C.ar    1  UNL1        0.0051
     12 C          62.3421   81.9078   13.2184 C.ar    1  UNL1        0.0715
     13 C          62.3093   82.8997   14.3431 C.ar    1  UNL1        0.0051
     14 C          62.4574   84.3645   14.0558 C.ar    1  UNL1        0.0145
     15 C          62.1939   80.4430   13.5057 C.3     1  UNL1        0.4186
     16 F          62.0457   78.9782   13.7930 F       1  UNL1       -0.1659
     17 F          61.2182   80.7566   14.6010 F       1  UNL1       -0.1659
     18 F          63.1696   80.1295   12.4104 F       1  UNL1       -0.1659
     19 C          64.2867   91.4957   12.1992 C.3     1  UNL1        0.1226
     20 C          65.2900   92.2782   11.4047 C.ar    1  UNL1       -0.0097
     21 C          64.9801   93.6834   10.9812 C.ar    1  UNL1       -0.0026
     22 C          65.9834   94.4658   10.1867 C.ar    1  UNL1        0.0111
     23 C          67.2966   93.8430    9.8158 C.ar    1  UNL1        0.0577
     24 CL         68.2999   94.6255    9.0213 Cl      1  UNL1       -0.0822
     25 C          67.6065   92.4378   10.2393 C.ar    1  UNL1        0.0111
     26 C          66.6032   91.6554   11.0337 C.ar    1  UNL1       -0.0026
     27 C          64.3390   91.5128   13.6981 C.ar    1  UNL1        0.0094
     28 C          65.4576   92.2228   14.4015 C.ar    1  UNL1       -0.0004
     29 C          65.5099   92.2398   15.9005 C.ar    1  UNL1        0.0204
     30 C          64.4438   91.5468   16.6961 C.ar    1  UNL1        0.0989
     31 N          63.3253   90.8367   15.9927 N.ar    1  UNL1       -0.2426
     32 C          63.2729   90.8197   14.4938 C.ar    1  UNL1        0.0954
@<TRIPOS>BOND
     1     1     2    2
     2    19     2    1
     3    19    20    1
     4    20    21   ar
     5    21    22   ar
     6    22    23   ar
     7    23    24    1
     8    23    25   ar
     9    25    26   ar
    10    19    27    1
    11    27    28   ar
    12    28    29   ar
    13    29    30   ar
    14    30    31   ar
    15    31    32   ar
    16     2     3   am
    17     3     4    1
    18     4     5    1
    19     5     6    1
    20     6     9    1
    21     9    10   ar
    22    10    11   ar
    23    11    12   ar
    24    12    15    1
    25    15    16    1
    26    15    17    1
    27    15    18    1
    28    12    13   ar
    29    13    14   ar
    30     6     7    1
    31     7     8    1
    32    26    20   ar
    33    32    27   ar
    34     8     3    1
    35    14     9   ar
@<TRIPOS>MOLECULE
*****
 32 35 0 0 0
SMALL
GASTEIGER

@<TRIPOS>ATOM
      1 O          64.9603   83.0981   11.3469 O.2     1  UNL1       -0.2742
      2 C          63.7186   83.7504   11.8788 C.2     1  UNL1        0.2335
      3 N          62.9519   84.7140   11.0225 N.am    1  UNL1       -0.2755
      4 C          61.7102   85.3662   11.5544 C.3     1  UNL1        0.1148
      5 C          60.9434   86.3299   10.6980 C.3     1  UNL1        0.1123
      6 N          61.4182   86.6413    9.3097 N.pl3   1  UNL1       -0.3041
      7 C          62.6598   85.9891    8.7777 C.3     1  UNL1        0.1123
      8 C          63.4267   85.0254    9.6341 C.3     1  UNL1        0.1148
      9 C          60.6514   87.6049    8.4533 C.ar    1  UNL1        0.0479
     10 C          59.7784   87.0935    7.3458 C.ar    1  UNL1        0.0145
     11 C          59.0116   88.0571    6.4894 C.ar    1  UNL1        0.0051
     12 C          59.1178   89.5321    6.7405 C.ar    1  UNL1        0.0715
     13 C          59.9907   90.0436    7.8478 C.ar    1  UNL1        0.0051
     14 C          60.7576   89.0799    8.7043 C.ar    1  UNL1        0.0145
     15 C          58.3510   90.4957    5.8841 C.3     1  UNL1        0.4186
     16 F          57.5841   91.4594    5.0277 F       1  UNL1       -0.1659
     17 F          57.0623   89.8955    6.3626 F       1  UNL1       -0.1659
     18 F          59.6397   91.0960    5.4056 F       1  UNL1       -0.1659
     19 C          63.2438   83.4390   13.2672 C.3     1  UNL1        0.1226
     20 C          63.2459   84.5092   14.3183 C.ar    1  UNL1       -0.0097
     21 C          64.1661   85.6865   14.1880 C.ar    1  UNL1       -0.0026
     22 C          64.1682   86.7567   15.2391 C.ar    1  UNL1        0.0111
     23 C          63.2501   86.6494   16.4204 C.ar    1  UNL1        0.0577
     24 CL         63.2522   87.7197   17.4715 Cl      1  UNL1       -0.0822
     25 C          62.3299   85.4721   16.5507 C.ar    1  UNL1        0.0111
     26 C          62.3278   84.4020   15.4996 C.ar    1  UNL1       -0.0026
     27 C          62.7670   82.0574   13.6045 C.ar    1  UNL1        0.0094
     28 C          61.3006   81.7906   13.7739 C.ar    1  UNL1       -0.0004
     29 C          60.8238   80.4089   14.1112 C.ar    1  UNL1        0.0204
     30 C          61.8132   79.2942   14.2792 C.ar    1  UNL1        0.0989
     31 N          63.2796   79.5610   14.1098 N.ar    1  UNL1       -0.2426
     32 C          63.7564   80.9425   13.7725 C.ar    1  UNL1        0.0954
@<TRIPOS>BOND
     1     1     2    2
     2    19     2    1
     3    19    20    1
     4    20    21   ar
     5    21    22   ar
     6    22    23   ar
     7    23    24    1
     8    23    25   ar
     9    25    26   ar
    10    19    27    1
    11    27    28   ar
    12    28    29   ar
    13    29    30   ar
    14    30    31   ar
    15    31    32   ar
    16     2     3   am
    17     3     4    1
    18     4     5    1
    19     5     6    1
    20     6     9    1
    21     9    10   ar
    22    10    11   ar
    23    11    12   ar
    24    12    15    1
    25    15    16    1
    26    15    17    1
    27    15    18    1
    28    12    13   ar
    29    13    14   ar
    30     6     7    1
    31     7     8    1
    32    26    20   ar
    33    32    27   ar
    34     8     3    1
    35    14     9   ar
@<TRIPOS>MOLECULE
*****
 32 35 0 0 0
SMALL
GASTEIGER

@<TRIPOS>ATOM
      1 O          62.1714   85.6234   12.5943 O.2     1  UNL1       -0.2742
      2 C          62.2308   87.0187   12.0466 C.2     1  UNL1        0.2335
      3 N          63.1769   88.0186   12.6423 N.am    1  UNL1       -0.2755
      4 C          63.2362   89.4138   12.0946 C.3     1  UNL1        0.1148
      5 C          64.1824   90.4138   12.6903 C.3     1  UNL1        0.1123
      6 N          65.0692   90.0186   13.8337 N.pl3   1  UNL1       -0.3041
      7 C          65.0099   88.6235   14.3814 C.3     1  UNL1        0.1123
      8 C          64.0637   87.6234   13.7857 C.3     1  UNL1        0.1148
      9 C          66.0153   91.0185   14.4293 C.ar    1  UNL1        0.0479
     10 C          65.6111   91.8039   15.6418 C.ar    1  UNL1        0.0145
     11 C          66.5572   92.8039   16.2374 C.ar    1  UNL1        0.0051
     12 C          67.9076   93.0185   15.6208 C.ar    1  UNL1        0.0715
     13 C          68.3119   92.2332   14.4084 C.ar    1  UNL1        0.0051
     14 C          67.3658   91.2332   13.8127 C.ar    1  UNL1        0.0145
     15 C          68.8537   94.0185   16.2165 C.3     1  UNL1        0.4186
     16 F          69.7999   95.0185   16.8122 F       1  UNL1       -0.1659
     17 F          68.1000   95.1298   15.5480 F       1  UNL1       -0.1659
     18 F          69.6074   92.9071   16.8849 F       1  UNL1       -0.1659
     19 C          61.3440   87.4138   10.9032 C.3     1  UNL1        0.1226
     20 C          61.3743   86.6297    9.6248 C.ar    1  UNL1       -0.0097
     21 C          60.1409   86.5295    8.7770 C.ar    1  UNL1       -0.0026
     22 C          60.1713   85.7454    7.4987 C.ar    1  UNL1        0.0111
     23 C          61.4350   85.0615    7.0681 C.ar    1  UNL1        0.0577
     24 CL         61.4653   84.2773    5.7897 Cl      1  UNL1       -0.0822
     25 C          62.6683   85.1617    7.9159 C.ar    1  UNL1        0.0111
     26 C          62.6380   85.9458    9.1942 C.ar    1  UNL1       -0.0026
     27 C          60.4268   88.5931   11.0382 C.ar    1  UNL1        0.0094
     28 C          59.4717   88.6722   12.1920 C.ar    1  UNL1       -0.0004
     29 C          58.5545   89.8515   12.3270 C.ar    1  UNL1        0.0204
     30 C          58.5926   90.9516   11.3081 C.ar    1  UNL1        0.0989
     31 N          59.5478   90.8725   10.1542 N.ar    1  UNL1       -0.2426
     32 C          60.4649   89.6933   10.0192 C.ar    1  UNL1        0.0954
@<TRIPOS>BOND
     1     1     2    2
     2    19     2    1
     3    19    20    1
     4    20    21   ar
     5    21    22   ar
     6    22    23   ar
     7    23    24    1
     8    23    25   ar
     9    25    26   ar
    10    19    27    1
    11    27    28   ar
    12    28    29   ar
    13    29    30   ar
    14    30    31   ar
    15    31    32   ar
    16     2     3   am
    17     3     4    1
    18     4     5    1
    19     5     6    1
    20     6     9    1
    21     9    10   ar
    22    10    11   ar
    23    11    12   ar
    24    12    15    1
    25    15    16    1
    26    15    17    1
    27    15    18    1
    28    12    13   ar
    29    13    14   ar
    30     6     7    1
    31     7     8    1
    32    26    20   ar
    33    32    27   ar
    34     8     3    1
    35    14     9   ar
@<TRIPOS>MOLECULE
*****
 32 35 0 0 0
SMALL
GASTEIGER

@<TRIPOS>ATOM
      1 O          59.4990   88.2553   12.3760 O.2     1  UNL1       -0.2742
      2 C          60.8152   88.3494   11.6626 C.2     1  UNL1        0.2335
      3 N          61.9560   89.0954   12.2888 N.am    1  UNL1       -0.2755
      4 C          63.2722   89.1895   11.5754 C.3     1  UNL1        0.1148
      5 C          64.4130   89.9354   12.2015 C.3     1  UNL1        0.1123
      6 N          64.2376   90.5873   13.5410 N.pl3   1  UNL1       -0.3041
      7 C          62.9215   90.4933   14.2544 C.3     1  UNL1        0.1123
      8 C          61.7806   89.7473   13.6283 C.3     1  UNL1        0.1148
      9 C          65.3784   91.3333   14.1672 C.ar    1  UNL1        0.0479
     10 C          65.2433   91.8816   15.5569 C.ar    1  UNL1        0.0145
     11 C          66.3841   92.6276   16.1830 C.ar    1  UNL1        0.0051
     12 C          67.6600   92.8253   15.4195 C.ar    1  UNL1        0.0715
     13 C          67.7952   92.2770   14.0299 C.ar    1  UNL1        0.0051
     14 C          66.6544   91.5310   13.4037 C.ar    1  UNL1        0.0145
     15 C          68.8008   93.5712   16.0457 C.3     1  UNL1        0.4186
     16 F          69.9417   94.3173   16.6719 F       1  UNL1       -0.1659
     17 F          68.2399   94.8628   15.5289 F       1  UNL1       -0.1659
     18 F          69.3617   92.2796   16.5625 F       1  UNL1       -0.1659
     19 C          60.9905   87.6975   10.3231 C.3     1  UNL1        0.1226
     20 C          60.3536   88.3008    9.1063 C.ar    1  UNL1       -0.0097
     21 C          59.4250   87.4803    8.2610 C.ar    1  UNL1       -0.0026
     22 C          58.7882   88.0836    7.0443 C.ar    1  UNL1        0.0111
     23 C          59.0800   89.5073    6.6728 C.ar    1  UNL1        0.0577
     24 CL         58.4431   90.1106    5.4560 Cl      1  UNL1       -0.0822
     25 C          60.0086   90.3277    7.5181 C.ar    1  UNL1        0.0111
     26 C          60.6454   89.7245    8.7349 C.ar    1  UNL1       -0.0026
     27 C          61.8027   86.4424   10.2004 C.ar    1  UNL1        0.0094
     28 C          62.4560   86.0965    8.8952 C.ar    1  UNL1       -0.0004
     29 C          63.2682   84.8413    8.7725 C.ar    1  UNL1        0.0204
     30 C          63.4270   83.9322    9.9549 C.ar    1  UNL1        0.0989
     31 N          62.7737   84.2781   11.2601 N.ar    1  UNL1       -0.2426
     32 C          61.9616   85.5332   11.3828 C.ar    1  UNL1        0.0954
@<TRIPOS>BOND
     1     1     2    2
     2    19     2    1
     3    19    20    1
     4    20    21   ar
     5    21    22   ar
     6    22    23   ar
     7    23    24    1
     8    23    25   ar
     9    25    26   ar
    10    19    27    1
    11    27    28   ar
    12    28    29   ar
    13    29    30   ar
    14    30    31   ar
    15    31    32   ar
    16     2     3   am
    17     3     4    1
    18     4     5    1
    19     5     6    1
    20     6     9    1
    21     9    10   ar
    22    10    11   ar
    23    11    12   ar
    24    12    15    1
    25    15    16    1
    26    15    17    1
    27    15    18    1
    28    12    13   ar
    29    13    14   ar
    30     6     7    1
    31     7     8    1
    32    26    20   ar
    33    32    27   ar
    34     8     3    1
    35    14     9   ar
