@<TRIPOS>MOLECULE
*****
 21 22 0 0 0
SMALL
GASTEIGER

@<TRIPOS>ATOM
      1 C          64.9580   91.9754   12.9636 C.3     1  UNL1        0.1605
      2 C          66.0716   92.4731   13.8367 C.2     1  UNL1        0.3319
      3 O          66.1547   93.9288   14.1892 O.2     1  UNL1       -0.2486
      4 C          67.9711   91.9054   15.5158 C.3     1  UNL1        0.2556
      5 O          67.1019   91.5153   14.3571 O.3     1  UNL1       -0.4435
      6 N          63.8191   91.2070   13.5657 N.3     1  UNL1       -0.2856
      7 H          63.7460   90.3327   13.0454 H       1  UNL1        0.1240
      8 C          63.8456   90.8440   15.0209 C.3     1  UNL1        0.0960
      9 C          63.7618   89.4051   15.4366 C.ar    1  UNL1       -0.0064
     10 C          64.3715   88.3390   14.5755 C.ar    1  UNL1       -0.0029
     11 C          64.2877   86.9002   14.9912 C.ar    1  UNL1       -0.0003
     12 C          63.5942   86.5276   16.2680 C.ar    1  UNL1       -0.0000
     13 C          62.9846   87.5938   17.1291 C.ar    1  UNL1       -0.0003
     14 C          63.0683   89.0325   16.7134 C.ar    1  UNL1       -0.0029
     15 C          64.9834   92.2459   11.4884 C.3     1  UNL1        0.0723
     16 C          65.8675   93.3260   10.9392 C.ar    1  UNL1        0.0561
     17 C          67.1004   93.1196   10.1101 C.ar    1  UNL1        0.1131
     18 N          67.6689   94.4682    9.7810 N.ar    1  UNL1       -0.2229
     19 C          66.7872   95.5080   10.4068 C.ar    1  UNL1        0.1748
     20 N          65.6739   94.8021   11.1225 N.ar    1  UNL1       -0.3381
     21 H          64.9443   95.2321   11.6245 H       1  UNL1        0.1672
@<TRIPOS>BOND
     1     4     5    1
     2     5     2    1
     3     2     3    2
     4     2     1    1
     5     1    15    1
     6    15    16    1
     7    16    17   ar
     8    17    18   ar
     9    18    19   ar
    10    19    20   ar
    11     1     6    1
    12     6     8    1
    13     8     9    1
    14     9    10   ar
    15    10    11   ar
    16    11    12   ar
    17    12    13   ar
    18    13    14   ar
    19    20    16   ar
    20    14     9   ar
    21    20    21    1
    22     6     7    1
@<TRIPOS>MOLECULE
*****
 21 22 0 0 0
SMALL
GASTEIGER

@<TRIPOS>ATOM
      1 C          64.1275   84.0882   14.0409 C.3     1  UNL1        0.1605
      2 C          62.8465   83.5742   14.6281 C.2     1  UNL1        0.3319
      3 O          61.7353   84.5276   14.9543 O.2     1  UNL1       -0.2486
      4 C          61.7005   81.3086   14.0769 C.3     1  UNL1        0.2556
      5 O          62.6766   82.1069   14.8892 O.3     1  UNL1       -0.4435
      6 N          64.5923   83.5911   12.7041 N.3     1  UNL1       -0.2856
      7 H          65.1290   82.7410   12.8764 H       1  UNL1        0.1240
      8 C          63.5911   83.2622   11.6367 C.3     1  UNL1        0.0960
      9 C          63.0133   84.3556   10.7878 C.ar    1  UNL1       -0.0064
     10 C          62.0456   85.3351   11.3828 C.ar    1  UNL1       -0.0029
     11 C          61.4678   86.4284   10.5339 C.ar    1  UNL1       -0.0003
     12 C          61.8577   86.5423    9.0899 C.ar    1  UNL1       -0.0000
     13 C          62.8255   85.5629    8.4949 C.ar    1  UNL1       -0.0003
     14 C          63.4032   84.4695    9.3438 C.ar    1  UNL1       -0.0029
     15 C          64.9437   85.0991   14.7904 C.3     1  UNL1        0.0723
     16 C          64.2939   86.3420   15.3224 C.ar    1  UNL1        0.0561
     17 C          64.3815   87.7113   14.7163 C.ar    1  UNL1        0.1131
     18 N          63.5842   88.6494   15.5732 N.ar    1  UNL1       -0.2229
     19 C          63.0038   87.8598   16.7089 C.ar    1  UNL1        0.1748
     20 N          63.4425   86.4338   16.5538 N.ar    1  UNL1       -0.3381
     21 H          63.2120   85.6888   17.1548 H       1  UNL1        0.1672
@<TRIPOS>BOND
     1     4     5    1
     2     5     2    1
     3     2     3    2
     4     2     1    1
     5     1    15    1
     6    15    16    1
     7    16    17   ar
     8    17    18   ar
     9    18    19   ar
    10    19    20   ar
    11     1     6    1
    12     6     8    1
    13     8     9    1
    14     9    10   ar
    15    10    11   ar
    16    11    12   ar
    17    12    13   ar
    18    13    14   ar
    19    20    16   ar
    20    14     9   ar
    21    20    21    1
    22     6     7    1
@<TRIPOS>MOLECULE
*****
 21 22 0 0 0
SMALL
GASTEIGER

@<TRIPOS>ATOM
      1 C          63.9317   91.2513   12.8647 C.3     1  UNL1        0.1605
      2 C          65.1593   92.1120   12.8186 C.2     1  UNL1        0.3319
      3 O          65.6453   92.7927   14.0638 O.2     1  UNL1       -0.2486
      4 C          65.6411   93.4985   10.6750 C.3     1  UNL1        0.2556
      5 O          65.9010   92.2919   11.5273 O.3     1  UNL1       -0.4435
      6 N          63.1781   91.0881   14.1514 N.3     1  UNL1       -0.2856
      7 H          62.3780   90.4884   13.9500 H       1  UNL1        0.1240
      8 C          63.8627   90.5076   15.3532 C.3     1  UNL1        0.0960
      9 C          63.7808   89.0346   15.6245 C.ar    1  UNL1       -0.0064
     10 C          64.3880   88.0594   14.6599 C.ar    1  UNL1       -0.0029
     11 C          64.3061   86.5865   14.9312 C.ar    1  UNL1       -0.0003
     12 C          63.6170   86.0887   16.1670 C.ar    1  UNL1       -0.0000
     13 C          63.0099   87.0638   17.1316 C.ar    1  UNL1       -0.0003
     14 C          63.0918   88.5367   16.8603 C.ar    1  UNL1       -0.0029
     15 C          63.4577   90.5538   11.6243 C.3     1  UNL1        0.0723
     16 C          62.1537   89.8126   11.6325 C.ar    1  UNL1        0.0561
     17 C          61.9570   88.3703   11.2700 C.ar    1  UNL1        0.1131
     18 N          60.4991   88.0498   11.4182 N.ar    1  UNL1       -0.2229
     19 C          59.7948   89.2940   11.8722 C.ar    1  UNL1        0.1748
     20 N          60.8174   90.3834   12.0047 N.ar    1  UNL1       -0.3381
     21 H          60.6423   91.3103   12.2864 H       1  UNL1        0.1672
@<TRIPOS>BOND
     1     4     5    1
     2     5     2    1
     3     2     3    2
     4     2     1    1
     5     1    15    1
     6    15    16    1
     7    16    17   ar
     8    17    18   ar
     9    18    19   ar
    10    19    20   ar
    11     1     6    1
    12     6     8    1
    13     8     9    1
    14     9    10   ar
    15    10    11   ar
    16    11    12   ar
    17    12    13   ar
    18    13    14   ar
    19    20    16   ar
    20    14     9   ar
    21    20    21    1
    22     6     7    1
@<TRIPOS>MOLECULE
*****
 21 22 0 0 0
SMALL
GASTEIGER

@<TRIPOS>ATOM
      1 C          64.9381   91.6383   14.8755 C.3     1  UNL1        0.1605
      2 C          65.5349   92.4656   15.9753 C.2     1  UNL1        0.3319
      3 O          64.7618   92.7041   17.2384 O.2     1  UNL1       -0.2486
      4 C          68.1179   92.2291   16.1233 C.3     1  UNL1        0.2556
      5 O          66.9048   93.0545   15.8119 O.3     1  UNL1       -0.4435
      6 N          63.5816   91.0226   15.0519 N.3     1  UNL1       -0.2856
      7 H          63.4006   90.4650   14.2172 H       1  UNL1        0.1240
      8 C          63.3072   90.1379   16.2316 C.3     1  UNL1        0.0960
      9 C          63.4857   88.6532   16.1133 C.ar    1  UNL1       -0.0064
     10 C          62.9294   87.7444   17.1690 C.ar    1  UNL1       -0.0029
     11 C          63.1080   86.2598   17.0506 C.ar    1  UNL1       -0.0003
     12 C          63.8429   85.6840   15.8766 C.ar    1  UNL1       -0.0000
     13 C          64.3992   86.5928   14.8209 C.ar    1  UNL1       -0.0003
     14 C          64.2206   88.0774   14.9392 C.ar    1  UNL1       -0.0029
     15 C          65.6977   91.4267   13.5996 C.3     1  UNL1        0.0723
     16 C          65.7893   92.5316   12.5893 C.ar    1  UNL1        0.0561
     17 C          65.2114   92.5109   11.2052 C.ar    1  UNL1        0.1131
     18 N          65.5399   93.8177   10.5461 N.ar    1  UNL1       -0.2229
     19 C          66.3208   94.6461   11.5229 C.ar    1  UNL1        0.1748
     20 N          66.4750   93.8512   12.7856 N.ar    1  UNL1       -0.3381
     21 H          66.9438   94.1441   13.6002 H       1  UNL1        0.1672
@<TRIPOS>BOND
     1     4     5    1
     2     5     2    1
     3     2     3    2
     4     2     1    1
     5     1    15    1
     6    15    16    1
     7    16    17   ar
     8    17    18   ar
     9    18    19   ar
    10    19    20   ar
    11     1     6    1
    12     6     8    1
    13     8     9    1
    14     9    10   ar
    15    10    11   ar
    16    11    12   ar
    17    12    13   ar
    18    13    14   ar
    19    20    16   ar
    20    14     9   ar
    21    20    21    1
    22     6     7    1
@<TRIPOS>MOLECULE
*****
 21 22 0 0 0
SMALL
GASTEIGER

@<TRIPOS>ATOM
      1 C          64.0767   90.9272   14.4865 C.3     1  UNL1        0.1605
      2 C          63.4129   90.7683   15.8222 C.2     1  UNL1        0.3319
      3 O          63.5955   91.8163   16.8798 O.2     1  UNL1       -0.2486
      4 C          63.0922   88.4626   16.9758 C.3     1  UNL1        0.2556
      5 O          62.5667   89.5615   16.1004 O.3     1  UNL1       -0.4435
      6 N          63.2905   91.4345   13.3140 N.3     1  UNL1       -0.2856
      7 H          63.3794   92.4506   13.3173 H       1  UNL1        0.1240
      8 C          63.6307   90.9746   11.9274 C.3     1  UNL1        0.0960
      9 C          62.8748   89.8365   11.3080 C.ar    1  UNL1       -0.0064
     10 C          62.0063   90.0773   10.1090 C.ar    1  UNL1       -0.0029
     11 C          61.2504   88.9393    9.4897 C.ar    1  UNL1       -0.0003
     12 C          61.3631   87.5605   10.0695 C.ar    1  UNL1       -0.0000
     13 C          62.2316   87.3197   11.2685 C.ar    1  UNL1       -0.0003
     14 C          62.9874   88.4577   11.8878 C.ar    1  UNL1       -0.0029
     15 C          65.5264   90.5788   14.3232 C.3     1  UNL1        0.0723
     16 C          66.5830   91.5886   14.6609 C.ar    1  UNL1        0.0561
     17 C          67.8229   91.8675   13.8640 C.ar    1  UNL1        0.1131
     18 N          68.5914   92.9480   14.5653 N.ar    1  UNL1       -0.2229
     19 C          67.8265   93.3369   15.7957 C.ar    1  UNL1        0.1748
     20 N          66.5853   92.4967   15.8547 N.ar    1  UNL1       -0.3381
     21 H          65.8935   92.5346   16.5542 H       1  UNL1        0.1672
@<TRIPOS>BOND
     1     4     5    1
     2     5     2    1
     3     2     3    2
     4     2     1    1
     5     1    15    1
     6    15    16    1
     7    16    17   ar
     8    17    18   ar
     9    18    19   ar
    10    19    20   ar
    11     1     6    1
    12     6     8    1
    13     8     9    1
    14     9    10   ar
    15    10    11   ar
    16    11    12   ar
    17    12    13   ar
    18    13    14   ar
    19    20    16   ar
    20    14     9   ar
    21    20    21    1
    22     6     7    1
@<TRIPOS>MOLECULE
*****
 21 22 0 0 0
SMALL
GASTEIGER

@<TRIPOS>ATOM
      1 C          63.3218   84.3038   12.5593 C.3     1  UNL1        0.1605
      2 C          63.5857   83.0831   11.7285 C.2     1  UNL1        0.3319
      3 O          64.8010   83.0212   10.8514 O.2     1  UNL1       -0.2486
      4 C          62.5225   81.0951   13.0198 C.3     1  UNL1        0.2556
      5 O          62.6344   81.9243   11.7749 O.3     1  UNL1       -0.4435
      6 N          62.2016   85.2320   12.1937 N.3     1  UNL1       -0.2856
      7 H          61.9553   85.7443   13.0407 H       1  UNL1        0.1240
      8 C          62.3960   86.2525   11.1116 C.3     1  UNL1        0.0960
      9 C          62.0249   85.9242    9.6957 C.ar    1  UNL1       -0.0064
     10 C          63.0097   85.2271    8.8046 C.ar    1  UNL1       -0.0029
     11 C          62.6386   84.8990    7.3888 C.ar    1  UNL1       -0.0003
     12 C          61.2826   85.2679    6.8641 C.ar    1  UNL1       -0.0000
     13 C          60.2978   85.9650    7.7552 C.ar    1  UNL1       -0.0003
     14 C          60.6689   86.2932    9.1710 C.ar    1  UNL1       -0.0029
     15 C          64.1781   84.5964   13.7556 C.3     1  UNL1        0.0723
     16 C          63.5677   85.2018   14.9847 C.ar    1  UNL1        0.0561
     17 C          62.5124   84.5736   15.8461 C.ar    1  UNL1        0.1131
     18 N          62.1979   85.5252   16.9621 N.ar    1  UNL1       -0.2229
     19 C          63.0589   86.7416   16.7905 C.ar    1  UNL1        0.1748
     20 N          63.9054   86.5416   15.5684 N.ar    1  UNL1       -0.3381
     21 H          64.5666   87.1781   15.2120 H       1  UNL1        0.1672
@<TRIPOS>BOND
     1     4     5    1
     2     5     2    1
     3     2     3    2
     4     2     1    1
     5     1    15    1
     6    15    16    1
     7    16    17   ar
     8    17    18   ar
     9    18    19   ar
    10    19    20   ar
    11     1     6    1
    12     6     8    1
    13     8     9    1
    14     9    10   ar
    15    10    11   ar
    16    11    12   ar
    17    12    13   ar
    18    13    14   ar
    19    20    16   ar
    20    14     9   ar
    21    20    21    1
    22     6     7    1
@<TRIPOS>MOLECULE
*****
 21 22 0 0 0
SMALL
GASTEIGER

@<TRIPOS>ATOM
      1 C          63.0769   84.8735   12.7637 C.3     1  UNL1        0.1605
      2 C          63.9635   85.2545   13.9120 C.2     1  UNL1        0.3319
      3 O          65.1971   84.4529   14.2051 O.2     1  UNL1       -0.2486
      4 C          64.3287   87.7420   14.5670 C.3     1  UNL1        0.2556
      5 O          63.6167   86.4370   14.7672 O.3     1  UNL1       -0.4435
      6 N          62.0222   85.8254   12.2825 N.3     1  UNL1       -0.2856
      7 H          61.8129   86.4508   13.0606 H       1  UNL1        0.1240
      8 C          62.2841   86.6935   11.0877 C.3     1  UNL1        0.0960
      9 C          61.9667   86.1901    9.7107 C.ar    1  UNL1       -0.0064
     10 C          63.0005   85.4312    8.9328 C.ar    1  UNL1       -0.0029
     11 C          62.6830   84.9278    7.5560 C.ar    1  UNL1       -0.0003
     12 C          61.3317   85.1833    6.9570 C.ar    1  UNL1       -0.0000
     13 C          60.2979   85.9423    7.7350 C.ar    1  UNL1       -0.0003
     14 C          60.6154   86.4456    9.1118 C.ar    1  UNL1       -0.0029
     15 C          63.2449   83.5406   12.0965 C.3     1  UNL1        0.0723
     16 C          62.7212   82.2999   12.7572 C.ar    1  UNL1        0.0561
     17 C          61.9450   82.2444   14.0395 C.ar    1  UNL1        0.1131
     18 N          61.6259   80.8071   14.3264 N.ar    1  UNL1       -0.2229
     19 C          62.2049   79.9743   13.2212 C.ar    1  UNL1        0.1748
     20 N          62.8818   80.8969   12.2515 N.ar    1  UNL1       -0.3381
     21 H          63.3494   80.6287   11.4277 H       1  UNL1        0.1672
@<TRIPOS>BOND
     1     4     5    1
     2     5     2    1
     3     2     3    2
     4     2     1    1
     5     1    15    1
     6    15    16    1
     7    16    17   ar
     8    17    18   ar
     9    18    19   ar
    10    19    20   ar
    11     1     6    1
    12     6     8    1
    13     8     9    1
    14     9    10   ar
    15    10    11   ar
    16    11    12   ar
    17    12    13   ar
    18    13    14   ar
    19    20    16   ar
    20    14     9   ar
    21    20    21    1
    22     6     7    1
@<TRIPOS>MOLECULE
*****
 21 22 0 0 0
SMALL
GASTEIGER

@<TRIPOS>ATOM
      1 C          63.5407   90.2067   14.0632 C.3     1  UNL1        0.1605
      2 C          63.4545   89.7887   15.5012 C.2     1  UNL1        0.3319
      3 O          63.3123   90.8252   16.5763 O.2     1  UNL1       -0.2486
      4 C          62.9646   87.8687   17.1815 C.3     1  UNL1        0.2556
      5 O          63.5103   88.3344   15.8642 O.3     1  UNL1       -0.4435
      6 N          63.8122   91.6400   13.7138 N.3     1  UNL1       -0.2856
      7 H          63.7035   92.1783   14.5733 H       1  UNL1        0.1240
      8 C          65.1343   92.0304   13.1227 C.3     1  UNL1        0.0960
      9 C          66.3306   92.2053   14.0107 C.ar    1  UNL1       -0.0064
     10 C          66.1504   92.6410   15.4346 C.ar    1  UNL1       -0.0029
     11 C          67.3466   92.8159   16.3225 C.ar    1  UNL1       -0.0003
     12 C          68.7230   92.5551   15.7864 C.ar    1  UNL1       -0.0000
     13 C          68.9033   92.1194   14.3625 C.ar    1  UNL1       -0.0003
     14 C          67.7070   91.9445   13.4746 C.ar    1  UNL1       -0.0029
     15 C          63.3556   89.1914   12.9747 C.3     1  UNL1        0.0723
     16 C          62.2780   89.3802   11.9485 C.ar    1  UNL1        0.0561
     17 C          62.4105   89.1325   10.4750 C.ar    1  UNL1        0.1131
     18 N          61.0931   89.4491    9.8315 N.ar    1  UNL1       -0.2229
     19 C          60.1463   89.8924   10.9072 C.ar    1  UNL1        0.1748
     20 N          60.8787   89.8499   12.2156 N.ar    1  UNL1       -0.3381
     21 H          60.5063   90.0883   13.0952 H       1  UNL1        0.1672
@<TRIPOS>BOND
     1     4     5    1
     2     5     2    1
     3     2     3    2
     4     2     1    1
     5     1    15    1
     6    15    16    1
     7    16    17   ar
     8    17    18   ar
     9    18    19   ar
    10    19    20   ar
    11     1     6    1
    12     6     8    1
    13     8     9    1
    14     9    10   ar
    15    10    11   ar
    16    11    12   ar
    17    12    13   ar
    18    13    14   ar
    19    20    16   ar
    20    14     9   ar
    21    20    21    1
    22     6     7    1
@<TRIPOS>MOLECULE
*****
 21 22 0 0 0
SMALL
GASTEIGER

@<TRIPOS>ATOM
      1 C          63.8949   90.7174   14.2819 C.3     1  UNL1        0.1605
      2 C          63.3369   90.6274   15.6713 C.2     1  UNL1        0.3319
      3 O          63.6096   91.7208   16.6614 O.2     1  UNL1       -0.2486
      4 C          63.0813   88.3954   16.9762 C.3     1  UNL1        0.2556
      5 O          62.5063   89.4440   16.0708 O.3     1  UNL1       -0.4435
      6 N          63.0420   90.3450   13.1055 N.3     1  UNL1       -0.2856
      7 H          63.1377   91.0966   12.4227 H       1  UNL1        0.1240
      8 C          63.2936   89.0602   12.3734 C.3     1  UNL1        0.0960
      9 C          62.3617   88.6239   11.2820 C.ar    1  UNL1       -0.0064
     10 C          61.7127   89.6462   10.3967 C.ar    1  UNL1       -0.0029
     11 C          60.7808   89.2099    9.3053 C.ar    1  UNL1       -0.0003
     12 C          60.4979   87.7513    9.0992 C.ar    1  UNL1       -0.0000
     13 C          61.1469   86.7290    9.9845 C.ar    1  UNL1       -0.0003
     14 C          62.0788   87.1653   11.0759 C.ar    1  UNL1       -0.0029
     15 C          65.3059   91.1798   14.0688 C.3     1  UNL1        0.0723
     16 C          65.6024   92.2365   13.0464 C.ar    1  UNL1        0.0561
     17 C          66.4402   93.4619   13.2623 C.ar    1  UNL1        0.1131
     18 N          66.4688   94.2361   11.9779 N.ar    1  UNL1       -0.2229
     19 C          65.6487   93.4891   10.9681 C.ar    1  UNL1        0.1748
     20 N          65.1133   92.2533   11.6285 N.ar    1  UNL1       -0.3381
     21 H          64.5413   91.5728   11.2056 H       1  UNL1        0.1672
@<TRIPOS>BOND
     1     4     5    1
     2     5     2    1
     3     2     3    2
     4     2     1    1
     5     1    15    1
     6    15    16    1
     7    16    17   ar
     8    17    18   ar
     9    18    19   ar
    10    19    20   ar
    11     1     6    1
    12     6     8    1
    13     8     9    1
    14     9    10   ar
    15    10    11   ar
    16    11    12   ar
    17    12    13   ar
    18    13    14   ar
    19    20    16   ar
    20    14     9   ar
    21    20    21    1
    22     6     7    1
