@<TRIPOS>MOLECULE
*****
 43 46 0 0 0
SMALL
GASTEIGER

@<TRIPOS>ATOM
      1 C          59.8416   90.1647    6.1757 C.2     1  UNL1        0.2672
      2 O          58.4867   90.3184    5.5508 O.2     1  UNL1       -0.2682
      3 N          61.0381   90.8080    5.5398 N.am    1  UNL1       -0.2791
      4 H          61.9274   90.7071    5.9499 H       1  UNL1        0.1552
      5 C          60.3167   87.7737    9.9583 C.ar    1  UNL1        0.1575
      6 C          59.5787   87.1903    8.7898 C.ar    1  UNL1        0.0402
      7 C          59.4204   87.9873    7.5291 C.ar    1  UNL1        0.0269
      8 C          60.0000   89.3677    7.4366 C.ar    1  UNL1        0.1350
      9 N          60.7380   89.9511    8.6049 N.ar    1  UNL1       -0.2361
     10 C          60.8963   89.1541    9.8658 C.ar    1  UNL1        0.1357
     11 O          60.4751   86.9766   11.2191 O.3     1  UNL1       -0.4775
     12 C          64.6833   82.7139   11.5650 C.3     1  UNL1        0.0895
     13 N          63.6313   83.7796   11.4785 N.3     1  UNL1       -0.2763
     14 C          63.2489   84.3495   10.1448 C.3     1  UNL1        0.0489
     15 C          64.2942   83.3628    9.7163 C.3     1  UNL1        0.0161
     16 C          63.2295   84.5768    8.6622 C.3     1  UNL1        0.0161
     17 C          62.1968   85.4152   10.0583 C.3     1  UNL1        0.0582
     18 C          61.5271   85.9110   11.3055 C.3     1  UNL1        0.1686
     19 C          61.9095   85.3410   12.6393 C.3     1  UNL1        0.0582
     20 C          62.9616   84.2754   12.7258 C.3     1  UNL1        0.0489
     21 C          62.6155   84.4183   14.1783 C.3     1  UNL1        0.0161
     22 C          63.8934   83.2593   13.3168 C.3     1  UNL1        0.0161
     23 C          60.8797   91.6050    4.2790 C.ar    1  UNL1        0.0507
     24 C          61.9953   91.6538    3.2773 C.ar    1  UNL1        0.0160
     25 C          61.8369   92.4507    2.0165 C.ar    1  UNL1        0.0160
     26 C          60.5629   93.1990    1.7573 C.ar    1  UNL1        0.0517
     27 C          59.4474   93.1502    2.7588 C.ar    1  UNL1        0.0160
     28 C          59.6058   92.3532    4.0197 C.ar    1  UNL1        0.0160
     29 N          60.4045   93.9959    0.4965 N.am    1  UNL1       -0.2680
     30 C          59.2471   93.7284   -0.4195 C.2     1  UNL1        0.3093
     31 O          58.2482   92.6639   -0.0746 O.2     1  UNL1       -0.2521
     32 N          59.0887   94.5254   -1.6803 N.am    1  UNL1       -0.2508
     33 H          61.0601   94.6946    0.2701 H       1  UNL1        0.1564
     34 H          59.7443   95.2240   -1.9067 H       1  UNL1        0.1579
     35 C          57.9313   94.2579   -2.5963 C.ar    1  UNL1        0.1771
     36 C          57.7876   93.0808   -3.5149 C.ar    1  UNL1        0.0734
     37 C          56.4820   93.2159   -4.2408 C.ar    1  UNL1        0.1549
     38 O          55.8186   94.4766   -3.7708 O.2     1  UNL1       -0.3565
     39 N          56.7144   95.1206   -2.7544 N.ar    1  UNL1       -0.0621
     40 C          55.9355   92.2585   -5.2581 C.3     1  UNL1        0.0539
     41 C          56.0274   91.1440   -4.2583 C.3     1  UNL1        0.0076
     42 C          55.8436   93.3731   -6.2577 C.3     1  UNL1        0.0076
     43 C          55.3891   91.3012   -6.2753 C.3     1  UNL1        0.0076
@<TRIPOS>BOND
     1    12    13    1
     2    13    14    1
     3    14    15    1
     4    14    16    1
     5    14    17    1
     6    17    18    1
     7    18    11    1
     8    11     5    1
     9     5     6   ar
    10     6     7   ar
    11     7     8   ar
    12     8     1    1
    13     1     2    2
    14     1     3   am
    15     3    23    1
    16    23    24   ar
    17    24    25   ar
    18    25    26   ar
    19    26    29    1
    20    29    30   am
    21    30    31    2
    22    30    32   am
    23    32    35    1
    24    35    36   ar
    25    36    37   ar
    26    37    40    1
    27    40    41    1
    28    40    42    1
    29    40    43    1
    30    37    38   ar
    31    38    39   ar
    32    26    27   ar
    33    27    28   ar
    34     8     9   ar
    35     9    10   ar
    36    18    19    1
    37    19    20    1
    38    20    21    1
    39    20    22    1
    40    20    13    1
    41    10     5   ar
    42    28    23   ar
    43    39    35   ar
    44     3     4    1
    45    29    33    1
    46    32    34    1
@<TRIPOS>MOLECULE
*****
 43 46 0 0 0
SMALL
GASTEIGER

@<TRIPOS>ATOM
      1 C          59.8416   90.1542    6.1778 C.2     1  UNL1        0.2672
      2 O          58.4874   90.3045    5.5505 O.2     1  UNL1       -0.2682
      3 N          61.0374   90.8018    5.5450 N.am    1  UNL1       -0.2791
      4 H          61.9262   90.7032    5.9568 H       1  UNL1        0.1552
      5 C          60.3166   87.7600    9.9584 C.ar    1  UNL1        0.1575
      6 C          59.5433   87.1940    8.8044 C.ar    1  UNL1        0.0402
      7 C          59.3850   87.9921    7.5442 C.ar    1  UNL1        0.0269
      8 C          59.9999   89.3561    7.4381 C.ar    1  UNL1        0.1350
      9 N          60.7732   89.9221    8.5920 N.ar    1  UNL1       -0.2361
     10 C          60.9316   89.1240    9.8523 C.ar    1  UNL1        0.1357
     11 O          60.4749   86.9619   11.2185 O.3     1  UNL1       -0.4775
     12 C          64.6958   82.7120   11.5678 C.3     1  UNL1        0.0895
     13 N          63.6406   83.7745   11.4805 N.3     1  UNL1       -0.2763
     14 C          62.9683   84.2680   12.7272 C.3     1  UNL1        0.0489
     15 C          63.9027   83.2548   13.3189 C.3     1  UNL1        0.0161
     16 C          62.6205   84.4097   14.1794 C.3     1  UNL1        0.0161
     17 C          61.9131   85.3305   12.6399 C.3     1  UNL1        0.0582
     18 C          61.5301   85.8994   11.3059 C.3     1  UNL1        0.1686
     19 C          62.2024   85.4058   10.0591 C.3     1  UNL1        0.0582
     20 C          63.2577   84.3434   10.1465 C.3     1  UNL1        0.0489
     21 C          63.2389   84.5707    8.6639 C.3     1  UNL1        0.0161
     22 C          64.3064   83.3599    9.7188 C.3     1  UNL1        0.0161
     23 C          60.8790   91.5999    4.2849 C.ar    1  UNL1        0.0507
     24 C          61.9949   91.6500    3.2836 C.ar    1  UNL1        0.0160
     25 C          61.8365   92.4480    2.0234 C.ar    1  UNL1        0.0160
     26 C          60.5623   93.1959    1.7645 C.ar    1  UNL1        0.0517
     27 C          59.4465   93.1459    2.7657 C.ar    1  UNL1        0.0160
     28 C          59.6049   92.3478    4.0259 C.ar    1  UNL1        0.0160
     29 N          60.4039   93.9940    0.5043 N.am    1  UNL1       -0.2680
     30 C          59.2507   93.7221   -0.4157 C.2     1  UNL1        0.3093
     31 O          58.2560   92.6522   -0.0754 O.2     1  UNL1       -0.2521
     32 N          59.0924   94.5201   -1.6758 N.am    1  UNL1       -0.2508
     33 H          61.0568   94.6962    0.2810 H       1  UNL1        0.1564
     34 H          59.7453   95.2223   -1.8991 H       1  UNL1        0.1579
     35 C          57.9392   94.2482   -2.5958 C.ar    1  UNL1        0.1771
     36 C          57.8259   93.0977   -3.5515 C.ar    1  UNL1        0.0734
     37 C          56.5136   93.2176   -4.2679 C.ar    1  UNL1        0.1549
     38 O          55.8157   94.4423   -3.7550 O.2     1  UNL1       -0.3565
     39 N          56.6968   95.0793   -2.7216 N.ar    1  UNL1       -0.0621
     40 C          55.9909   92.2778   -5.3137 C.3     1  UNL1        0.0539
     41 C          55.9889   91.1627   -4.3104 C.3     1  UNL1        0.0076
     42 C          55.9929   93.3930   -6.3169 C.3     1  UNL1        0.0076
     43 C          55.4682   91.3380   -6.3594 C.3     1  UNL1        0.0076
@<TRIPOS>BOND
     1    12    13    1
     2    13    14    1
     3    14    15    1
     4    14    16    1
     5    14    17    1
     6    17    18    1
     7    18    11    1
     8    11     5    1
     9     5     6   ar
    10     6     7   ar
    11     7     8   ar
    12     8     1    1
    13     1     2    2
    14     1     3   am
    15     3    23    1
    16    23    24   ar
    17    24    25   ar
    18    25    26   ar
    19    26    29    1
    20    29    30   am
    21    30    31    2
    22    30    32   am
    23    32    35    1
    24    35    36   ar
    25    36    37   ar
    26    37    40    1
    27    40    41    1
    28    40    42    1
    29    40    43    1
    30    37    38   ar
    31    38    39   ar
    32    26    27   ar
    33    27    28   ar
    34     8     9   ar
    35     9    10   ar
    36    18    19    1
    37    19    20    1
    38    20    21    1
    39    20    22    1
    40    20    13    1
    41    10     5   ar
    42    28    23   ar
    43    39    35   ar
    44     3     4    1
    45    29    33    1
    46    32    34    1
@<TRIPOS>MOLECULE
*****
 43 46 0 0 0
SMALL
GASTEIGER

@<TRIPOS>ATOM
      1 C          59.8615   90.1603    6.1441 C.2     1  UNL1        0.2672
      2 O          58.5101   90.3076    5.5100 O.2     1  UNL1       -0.2682
      3 N          61.0600   90.8051    5.5136 N.am    1  UNL1       -0.2791
      4 H          61.9470   90.7085    5.9298 H       1  UNL1        0.1552
      5 C          60.3198   87.7838    9.9379 C.ar    1  UNL1        0.1575
      6 C          59.5339   87.2212    8.7907 C.ar    1  UNL1        0.0402
      7 C          59.3812   88.0133    7.5261 C.ar    1  UNL1        0.0269
      8 C          60.0142   89.3681    7.4087 C.ar    1  UNL1        0.1350
      9 N          60.8000   89.9308    8.5558 N.ar    1  UNL1       -0.2361
     10 C          60.9528   89.1386    9.8205 C.ar    1  UNL1        0.1357
     11 O          60.4725   86.9916   11.2024 O.3     1  UNL1       -0.4775
     12 C          64.6745   82.7255   11.5809 C.3     1  UNL1        0.0895
     13 N          63.6240   83.7920   11.4863 N.3     1  UNL1       -0.2763
     14 C          63.2489   84.3587   10.1491 C.3     1  UNL1        0.0489
     15 C          64.2954   83.3698    9.7286 C.3     1  UNL1        0.0161
     16 C          63.2373   84.5820    8.6659 C.3     1  UNL1        0.0161
     17 C          62.1984   85.4253   10.0545 C.3     1  UNL1        0.0582
     18 C          61.5230   85.9251   11.2970 C.3     1  UNL1        0.1686
     19 C          61.8981   85.3583   12.6342 C.3     1  UNL1        0.0582
     20 C          62.9486   84.2918   12.7288 C.3     1  UNL1        0.0489
     21 C          62.5953   84.4390   14.1792 C.3     1  UNL1        0.0161
     22 C          63.8764   83.2764   13.3272 C.3     1  UNL1        0.0161
     23 C          60.9072   91.5973    4.2490 C.ar    1  UNL1        0.0507
     24 C          59.6337   92.3431    3.9805 C.ar    1  UNL1        0.0160
     25 C          59.4809   93.1352    2.7159 C.ar    1  UNL1        0.0160
     26 C          60.6015   93.1816    1.7199 C.ar    1  UNL1        0.0517
     27 C          61.8750   92.4358    1.9884 C.ar    1  UNL1        0.0160
     28 C          62.0278   91.6436    3.2530 C.ar    1  UNL1        0.0160
     29 N          60.4487   93.9737    0.4553 N.am    1  UNL1       -0.2680
     30 C          59.1497   93.9465   -0.2944 C.2     1  UNL1        0.3093
     31 O          58.0037   93.1271    0.2205 O.2     1  UNL1       -0.2521
     32 N          58.9969   94.7386   -1.5590 N.am    1  UNL1       -0.2508
     33 H          61.2009   94.5115    0.1174 H       1  UNL1        0.1564
     34 H          59.7492   95.2764   -1.8969 H       1  UNL1        0.1579
     35 C          57.6980   94.7114   -2.3087 C.ar    1  UNL1        0.1771
     36 C          56.4641   95.4913   -1.9634 C.ar    1  UNL1        0.0734
     37 C          55.4085   95.1614   -2.9766 C.ar    1  UNL1        0.1549
     38 O          55.9899   94.1775   -3.9482 O.2     1  UNL1       -0.3565
     39 N          57.4049   93.8994   -3.5354 N.ar    1  UNL1       -0.0621
     40 C          54.0158   95.7177   -3.0121 C.3     1  UNL1        0.0539
     41 C          53.9517   95.6523   -1.5149 C.3     1  UNL1        0.0076
     42 C          54.0801   95.7831   -4.5093 C.3     1  UNL1        0.0076
     43 C          52.6233   96.2739   -3.0476 C.3     1  UNL1        0.0076
@<TRIPOS>BOND
     1    12    13    1
     2    13    14    1
     3    14    15    1
     4    14    16    1
     5    14    17    1
     6    17    18    1
     7    18    11    1
     8    11     5    1
     9     5     6   ar
    10     6     7   ar
    11     7     8   ar
    12     8     1    1
    13     1     2    2
    14     1     3   am
    15     3    23    1
    16    23    24   ar
    17    24    25   ar
    18    25    26   ar
    19    26    29    1
    20    29    30   am
    21    30    31    2
    22    30    32   am
    23    32    35    1
    24    35    36   ar
    25    36    37   ar
    26    37    40    1
    27    40    41    1
    28    40    42    1
    29    40    43    1
    30    37    38   ar
    31    38    39   ar
    32    26    27   ar
    33    27    28   ar
    34     8     9   ar
    35     9    10   ar
    36    18    19    1
    37    19    20    1
    38    20    21    1
    39    20    22    1
    40    20    13    1
    41    10     5   ar
    42    28    23   ar
    43    39    35   ar
    44     3     4    1
    45    29    33    1
    46    32    34    1
@<TRIPOS>MOLECULE
*****
 43 46 0 0 0
SMALL
GASTEIGER

@<TRIPOS>ATOM
      1 C          59.7260   90.1142    6.3072 C.2     1  UNL1        0.2672
      2 O          58.3455   90.2396    5.7342 O.2     1  UNL1       -0.2682
      3 N          60.8881   90.7594    5.6121 N.am    1  UNL1       -0.2791
      4 H          61.7942   90.6771    5.9882 H       1  UNL1        0.1552
      5 C          60.3813   87.8019   10.1117 C.ar    1  UNL1        0.1575
      6 C          59.6347   87.1746    8.9719 C.ar    1  UNL1        0.0402
      7 C          59.4162   87.9454    7.7038 C.ar    1  UNL1        0.0269
      8 C          59.9445   89.3434    7.5754 C.ar    1  UNL1        0.1350
      9 N          60.6911   89.9707    8.7151 N.ar    1  UNL1       -0.2361
     10 C          60.9095   89.1999    9.9833 C.ar    1  UNL1        0.1357
     11 O          60.5997   87.0311   11.3799 O.3     1  UNL1       -0.4775
     12 C          64.6561   82.6131   11.5445 C.3     1  UNL1        0.0895
     13 N          63.6420   83.7176   11.5034 N.3     1  UNL1       -0.2763
     14 C          63.2671   84.3431   10.1926 C.3     1  UNL1        0.0489
     15 C          64.2722   83.3341    9.7216 C.3     1  UNL1        0.0161
     16 C          63.2412   84.6182    8.7183 C.3     1  UNL1        0.0161
     17 C          62.2530   85.4476   10.1514 C.3     1  UNL1        0.0582
     18 C          61.6138   85.9266   11.4210 C.3     1  UNL1        0.1686
     19 C          61.9887   85.3011   12.7318 C.3     1  UNL1        0.0582
     20 C          63.0028   84.1966   12.7730 C.3     1  UNL1        0.0489
     21 C          62.6764   84.3052   14.2330 C.3     1  UNL1        0.0161
     22 C          63.9035   83.1298   13.3213 C.3     1  UNL1        0.0161
     23 C          60.6696   91.5301    4.3439 C.ar    1  UNL1        0.0507
     24 C          59.3116   92.0826    4.0265 C.ar    1  UNL1        0.0160
     25 C          59.0931   92.8533    2.7584 C.ar    1  UNL1        0.0160
     26 C          60.2325   93.0716    1.8076 C.ar    1  UNL1        0.0517
     27 C          61.5905   92.5191    2.1249 C.ar    1  UNL1        0.0160
     28 C          61.8090   91.7484    3.3931 C.ar    1  UNL1        0.0160
     29 N          60.0141   93.8423    0.5395 N.am    1  UNL1       -0.2680
     30 C          61.1340   93.9976   -0.4463 C.2     1  UNL1        0.3093
     31 O          62.4725   93.3821   -0.1638 O.2     1  UNL1       -0.2521
     32 N          60.9156   94.7683   -1.7144 N.am    1  UNL1       -0.2508
     33 H          59.1356   94.2462    0.3541 H       1  UNL1        0.1564
     34 H          60.0371   95.1722   -1.8998 H       1  UNL1        0.1579
     35 C          62.0355   94.9235   -2.7002 C.ar    1  UNL1        0.1771
     36 C          62.6744   93.8198   -3.4899 C.ar    1  UNL1        0.0734
     37 C          63.7469   94.4240   -4.3470 C.ar    1  UNL1        0.1549
     38 O          63.7710   95.9011   -4.0870 O.2     1  UNL1       -0.3565
     39 N          62.7132   96.2099   -3.0691 N.ar    1  UNL1       -0.0621
     40 C          64.6388   93.6814   -5.2973 C.3     1  UNL1        0.0539
     41 C          64.0139   92.3860   -4.8715 C.3     1  UNL1        0.0076
     42 C          65.2638   94.9768   -5.7231 C.3     1  UNL1        0.0076
     43 C          65.5307   92.9388   -6.2476 C.3     1  UNL1        0.0076
@<TRIPOS>BOND
     1    12    13    1
     2    13    14    1
     3    14    15    1
     4    14    16    1
     5    14    17    1
     6    17    18    1
     7    18    11    1
     8    11     5    1
     9     5     6   ar
    10     6     7   ar
    11     7     8   ar
    12     8     1    1
    13     1     2    2
    14     1     3   am
    15     3    23    1
    16    23    24   ar
    17    24    25   ar
    18    25    26   ar
    19    26    29    1
    20    29    30   am
    21    30    31    2
    22    30    32   am
    23    32    35    1
    24    35    36   ar
    25    36    37   ar
    26    37    40    1
    27    40    41    1
    28    40    42    1
    29    40    43    1
    30    37    38   ar
    31    38    39   ar
    32    26    27   ar
    33    27    28   ar
    34     8     9   ar
    35     9    10   ar
    36    18    19    1
    37    19    20    1
    38    20    21    1
    39    20    22    1
    40    20    13    1
    41    10     5   ar
    42    28    23   ar
    43    39    35   ar
    44     3     4    1
    45    29    33    1
    46    32    34    1
@<TRIPOS>MOLECULE
*****
 43 46 0 0 0
SMALL
GASTEIGER

@<TRIPOS>ATOM
      1 C          59.8446   90.0392    6.3613 C.2     1  UNL1        0.2672
      2 O          58.4871   90.1443    5.7320 O.2     1  UNL1       -0.2682
      3 N          61.0224   90.7118    5.7208 N.am    1  UNL1       -0.2791
      4 H          61.9134   90.6429    6.1339 H       1  UNL1        0.1552
      5 C          60.3836   87.7061   10.1714 C.ar    1  UNL1        0.1575
      6 C          59.7990   87.0407    8.9607 C.ar    1  UNL1        0.0402
      7 C          59.6193   87.8184    7.6908 C.ar    1  UNL1        0.0269
      8 C          60.0243   89.2615    7.6314 C.ar    1  UNL1        0.1350
      9 N          60.6089   89.9269    8.8419 N.ar    1  UNL1       -0.2361
     10 C          60.7886   89.1491   10.1120 C.ar    1  UNL1        0.1357
     11 O          60.5633   86.9283   11.4413 O.3     1  UNL1       -0.4775
     12 C          64.7101   82.6030   11.7493 C.3     1  UNL1        0.0895
     13 N          63.6734   83.6843   11.6723 N.3     1  UNL1       -0.2763
     14 C          63.0323   84.1993   12.9267 C.3     1  UNL1        0.0489
     15 C          63.9579   83.1731   13.5098 C.3     1  UNL1        0.0161
     16 C          62.7126   84.3579   14.3837 C.3     1  UNL1        0.0161
     17 C          61.9956   85.2807   12.8498 C.3     1  UNL1        0.0582
     18 C          61.6000   85.8470   11.5183 C.3     1  UNL1        0.1686
     19 C          62.2411   85.3320   10.2639 C.3     1  UNL1        0.0582
     20 C          63.2779   84.2507   10.3409 C.3     1  UNL1        0.0489
     21 C          63.2374   84.4676    8.8572 C.3     1  UNL1        0.0161
     22 C          64.3005   83.2447    9.9025 C.3     1  UNL1        0.0161
     23 C          60.8427   91.4895    4.4508 C.ar    1  UNL1        0.0507
     24 C          59.5280   92.1482    4.1543 C.ar    1  UNL1        0.0160
     25 C          59.3483   92.9259    2.8844 C.ar    1  UNL1        0.0160
     26 C          60.4832   93.0449    1.9108 C.ar    1  UNL1        0.0517
     27 C          61.7978   92.3862    2.2072 C.ar    1  UNL1        0.0160
     28 C          61.9776   91.6085    3.4772 C.ar    1  UNL1        0.0160
     29 N          60.3035   93.8226    0.6408 N.am    1  UNL1       -0.2680
     30 C          61.4352   93.9331   -0.3375 C.2     1  UNL1        0.3093
     31 O          62.7466   93.2658   -0.0458 O.2     1  UNL1       -0.2521
     32 N          61.2554   94.7107   -1.6075 N.am    1  UNL1       -0.2508
     33 H          59.4427   94.2605    0.4494 H       1  UNL1        0.1564
     34 H          60.3947   95.1486   -1.7990 H       1  UNL1        0.1579
     35 C          62.3872   94.8212   -2.5859 C.ar    1  UNL1        0.1771
     36 C          62.2915   94.6274   -4.0702 C.ar    1  UNL1        0.0734
     37 C          63.6584   94.8313   -4.6533 C.ar    1  UNL1        0.1549
     38 O          64.5989   95.1512   -3.5293 O.2     1  UNL1       -0.3565
     39 N          63.8131   95.1450   -2.2515 N.ar    1  UNL1       -0.0621
     40 C          64.0212   94.7327   -6.1054 C.3     1  UNL1        0.0539
     41 C          64.0645   93.2375   -5.9930 C.3     1  UNL1        0.0076
     42 C          63.9779   96.2279   -6.2178 C.3     1  UNL1        0.0076
     43 C          64.3840   94.6341   -7.5575 C.3     1  UNL1        0.0076
@<TRIPOS>BOND
     1    12    13    1
     2    13    14    1
     3    14    15    1
     4    14    16    1
     5    14    17    1
     6    17    18    1
     7    18    11    1
     8    11     5    1
     9     5     6   ar
    10     6     7   ar
    11     7     8   ar
    12     8     1    1
    13     1     2    2
    14     1     3   am
    15     3    23    1
    16    23    24   ar
    17    24    25   ar
    18    25    26   ar
    19    26    29    1
    20    29    30   am
    21    30    31    2
    22    30    32   am
    23    32    35    1
    24    35    36   ar
    25    36    37   ar
    26    37    40    1
    27    40    41    1
    28    40    42    1
    29    40    43    1
    30    37    38   ar
    31    38    39   ar
    32    26    27   ar
    33    27    28   ar
    34     8     9   ar
    35     9    10   ar
    36    18    19    1
    37    19    20    1
    38    20    21    1
    39    20    22    1
    40    20    13    1
    41    10     5   ar
    42    28    23   ar
    43    39    35   ar
    44     3     4    1
    45    29    33    1
    46    32    34    1
@<TRIPOS>MOLECULE
*****
 43 46 0 0 0
SMALL
GASTEIGER

@<TRIPOS>ATOM
      1 C          61.0638   89.2943    8.6894 C.2     1  UNL1        0.2672
      2 O          61.5825   90.7008    8.7400 O.2     1  UNL1       -0.2682
      3 N          60.1724   88.8637    7.5624 N.am    1  UNL1       -0.2791
      4 H          59.8320   87.9406    7.5292 H       1  UNL1        0.1552
      5 C          62.1818   86.3663   11.9186 C.ar    1  UNL1        0.1575
      6 C          61.2597   85.9469   10.8122 C.ar    1  UNL1        0.0402
      7 C          60.8870   86.9229    9.7359 C.ar    1  UNL1        0.0269
      8 C          61.4365   88.3183    9.7658 C.ar    1  UNL1        0.1350
      9 N          62.3585   88.7377   10.8720 N.ar    1  UNL1       -0.2361
     10 C          62.7312   87.7617   11.9485 C.ar    1  UNL1        0.1357
     11 O          62.5544   85.3903   12.9949 O.3     1  UNL1       -0.4775
     12 C          62.8735   79.5294   11.7508 C.3     1  UNL1        0.0895
     13 N          62.7937   80.9946   12.0618 N.3     1  UNL1       -0.2763
     14 C          63.3545   81.9976   11.0977 C.3     1  UNL1        0.0489
     15 C          63.6667   80.7276   10.3632 C.3     1  UNL1        0.0161
     16 C          64.0237   82.5595    9.8785 C.3     1  UNL1        0.0161
     17 C          63.2747   83.4628   11.4087 C.3     1  UNL1        0.0582
     18 C          62.6342   83.9251   12.6839 C.3     1  UNL1        0.1686
     19 C          62.0734   82.9221   13.6480 C.3     1  UNL1        0.0582
     20 C          62.1532   81.4569   13.3370 C.3     1  UNL1        0.0489
     21 C          61.4563   81.4039   14.6642 C.3     1  UNL1        0.0161
     22 C          61.9909   79.9733   13.4869 C.3     1  UNL1        0.0161
     23 C          59.7998   89.8397    6.4861 C.ar    1  UNL1        0.0507
     24 C          58.3595   90.1915    6.2585 C.ar    1  UNL1        0.0160
     25 C          57.9868   91.1675    5.1821 C.ar    1  UNL1        0.0160
     26 C          59.0545   91.7917    4.3334 C.ar    1  UNL1        0.0517
     27 C          60.4948   91.4400    4.5609 C.ar    1  UNL1        0.0160
     28 C          60.8675   90.4640    5.6373 C.ar    1  UNL1        0.0160
     29 N          58.6819   92.7677    3.2570 N.am    1  UNL1       -0.2680
     30 C          59.6784   93.1311    2.1963 C.2     1  UNL1        0.3093
     31 O          61.0475   92.5185    2.2120 O.2     1  UNL1       -0.2521
     32 N          59.3057   94.1071    1.1200 N.am    1  UNL1       -0.2508
     33 H          57.7833   93.1698    3.2467 H       1  UNL1        0.1564
     34 H          58.4071   94.5092    1.1097 H       1  UNL1        0.1579
     35 C          60.3022   94.4705    0.0593 C.ar    1  UNL1        0.1771
     36 C          60.7847   93.5733   -1.0417 C.ar    1  UNL1        0.0734
     37 C          61.7718   94.3432   -1.8681 C.ar    1  UNL1        0.1549
     38 O          61.8994   95.7163   -1.2777 O.2     1  UNL1       -0.3565
     39 N          60.9911   95.7950   -0.0865 N.ar    1  UNL1       -0.0621
     40 C          62.5030   93.8301   -3.0731 C.3     1  UNL1        0.0539
     41 C          61.2724   94.0337   -3.9063 C.3     1  UNL1        0.0076
     42 C          63.7335   93.6267   -2.2399 C.3     1  UNL1        0.0076
     43 C          63.2341   93.3171   -4.2781 C.3     1  UNL1        0.0076
@<TRIPOS>BOND
     1    12    13    1
     2    13    14    1
     3    14    15    1
     4    14    16    1
     5    14    17    1
     6    17    18    1
     7    18    11    1
     8    11     5    1
     9     5     6   ar
    10     6     7   ar
    11     7     8   ar
    12     8     1    1
    13     1     2    2
    14     1     3   am
    15     3    23    1
    16    23    24   ar
    17    24    25   ar
    18    25    26   ar
    19    26    29    1
    20    29    30   am
    21    30    31    2
    22    30    32   am
    23    32    35    1
    24    35    36   ar
    25    36    37   ar
    26    37    40    1
    27    40    41    1
    28    40    42    1
    29    40    43    1
    30    37    38   ar
    31    38    39   ar
    32    26    27   ar
    33    27    28   ar
    34     8     9   ar
    35     9    10   ar
    36    18    19    1
    37    19    20    1
    38    20    21    1
    39    20    22    1
    40    20    13    1
    41    10     5   ar
    42    28    23   ar
    43    39    35   ar
    44     3     4    1
    45    29    33    1
    46    32    34    1
@<TRIPOS>MOLECULE
*****
 43 46 0 0 0
SMALL
GASTEIGER

@<TRIPOS>ATOM
      1 C          61.0769   89.2958    8.6562 C.2     1  UNL1        0.2672
      2 O          61.6067   90.6986    8.6948 O.2     1  UNL1       -0.2682
      3 N          60.1734   88.8659    7.5388 N.am    1  UNL1       -0.2791
      4 H          59.8256   87.9452    7.5134 H       1  UNL1        0.1552
      5 C          62.1983   86.3773   11.8928 C.ar    1  UNL1        0.1575
      6 C          62.7713   87.7636   11.9014 C.ar    1  UNL1        0.0402
      7 C          62.3975   88.7364   10.8226 C.ar    1  UNL1        0.0269
      8 C          61.4507   88.3230    9.7351 C.ar    1  UNL1        0.1350
      9 N          60.8777   86.9368    9.7264 N.ar    1  UNL1       -0.2361
     10 C          61.2515   85.9639   10.8053 C.ar    1  UNL1        0.1357
     11 O          62.5721   85.4045   12.9716 O.3     1  UNL1       -0.4775
     12 C          62.8707   79.5379   11.7494 C.3     1  UNL1        0.0895
     13 N          62.7961   81.0046   12.0550 N.3     1  UNL1       -0.2763
     14 C          62.1412   81.4748   13.3199 C.3     1  UNL1        0.0489
     15 C          61.9675   79.9927   13.4720 C.3     1  UNL1        0.0161
     16 C          61.4260   81.4303   14.6376 C.3     1  UNL1        0.0161
     17 C          62.0666   82.9414   13.6254 C.3     1  UNL1        0.0582
     18 C          62.6468   83.9379   12.6661 C.3     1  UNL1        0.1686
     19 C          63.3016   83.4677   11.4012 C.3     1  UNL1        0.0582
     20 C          63.3763   82.0010   11.0956 C.3     1  UNL1        0.0489
     21 C          64.0656   82.5549    9.8840 C.3     1  UNL1        0.0161
     22 C          63.6904   80.7268   10.3692 C.3     1  UNL1        0.0161
     23 C          59.7996   89.8387    6.4600 C.ar    1  UNL1        0.0507
     24 C          58.3583   90.1833    6.2272 C.ar    1  UNL1        0.0160
     25 C          57.9846   91.1562    5.1484 C.ar    1  UNL1        0.0160
     26 C          59.0520   91.7845    4.3024 C.ar    1  UNL1        0.0517
     27 C          60.4932   91.4400    4.5351 C.ar    1  UNL1        0.0160
     28 C          60.8671   90.4671    5.6139 C.ar    1  UNL1        0.0160
     29 N          58.6783   92.7573    3.2236 N.am    1  UNL1       -0.2680
     30 C          59.6791   93.1302    2.1703 C.2     1  UNL1        0.3093
     31 O          61.0536   92.5302    2.1958 O.2     1  UNL1       -0.2521
     32 N          59.3054   94.1031    1.0915 N.am    1  UNL1       -0.2508
     33 H          57.7761   93.1511    3.2068 H       1  UNL1        0.1564
     34 H          58.4032   94.4969    1.0747 H       1  UNL1        0.1579
     35 C          60.3062   94.4760    0.0381 C.ar    1  UNL1        0.1771
     36 C          60.7257   93.6218   -1.1213 C.ar    1  UNL1        0.0734
     37 C          61.7419   94.3864   -1.9166 C.ar    1  UNL1        0.1549
     38 O          61.9505   95.7133   -1.2487 O.2     1  UNL1       -0.3565
     39 N          61.0631   95.7686   -0.0405 N.ar    1  UNL1       -0.0621
     40 C          62.4290   93.9082   -3.1613 C.3     1  UNL1        0.0539
     41 C          63.6412   93.5490   -2.3541 C.3     1  UNL1        0.0076
     42 C          61.2168   94.2674   -3.9685 C.3     1  UNL1        0.0076
     43 C          63.1160   93.4300   -4.4059 C.3     1  UNL1        0.0076
@<TRIPOS>BOND
     1    12    13    1
     2    13    14    1
     3    14    15    1
     4    14    16    1
     5    14    17    1
     6    17    18    1
     7    18    11    1
     8    11     5    1
     9     5     6   ar
    10     6     7   ar
    11     7     8   ar
    12     8     1    1
    13     1     2    2
    14     1     3   am
    15     3    23    1
    16    23    24   ar
    17    24    25   ar
    18    25    26   ar
    19    26    29    1
    20    29    30   am
    21    30    31    2
    22    30    32   am
    23    32    35    1
    24    35    36   ar
    25    36    37   ar
    26    37    40    1
    27    40    41    1
    28    40    42    1
    29    40    43    1
    30    37    38   ar
    31    38    39   ar
    32    26    27   ar
    33    27    28   ar
    34     8     9   ar
    35     9    10   ar
    36    18    19    1
    37    19    20    1
    38    20    21    1
    39    20    22    1
    40    20    13    1
    41    10     5   ar
    42    28    23   ar
    43    39    35   ar
    44     3     4    1
    45    29    33    1
    46    32    34    1
@<TRIPOS>MOLECULE
*****
 43 46 0 0 0
SMALL
GASTEIGER

@<TRIPOS>ATOM
      1 C          60.0479   89.6513    6.9932 C.2     1  UNL1        0.2672
      2 O          59.5093   88.2516    7.0220 O.2     1  UNL1       -0.2682
      3 N          60.8893   90.1546    8.1284 N.am    1  UNL1       -0.2791
      4 H          61.2427   91.0733    8.1095 H       1  UNL1        0.1552
      5 C          59.1393   92.3402    3.5011 C.ar    1  UNL1        0.1575
      6 C          60.5498   91.9020    3.7633 C.ar    1  UNL1        0.0402
      7 C          60.8526   91.0057    4.9273 C.ar    1  UNL1        0.0269
      8 C          59.7450   90.5476    5.8292 C.ar    1  UNL1        0.1350
      9 N          58.3346   90.9857    5.5670 N.ar    1  UNL1       -0.2361
     10 C          58.0317   91.8821    4.4030 C.ar    1  UNL1        0.1357
     11 O          58.8365   93.2365    2.3371 O.3     1  UNL1       -0.4775
     12 C          62.7916   93.7759   -2.1424 C.3     1  UNL1        0.0895
     13 N          61.8029   93.6411   -1.0225 N.3     1  UNL1       -0.2763
     14 C          62.2648   93.7362    0.4014 C.3     1  UNL1        0.0489
     15 C          63.5717   93.9271   -0.3097 C.3     1  UNL1        0.0161
     16 C          63.1806   93.8976    1.5783 C.3     1  UNL1        0.0161
     17 C          61.2760   93.6013    1.5213 C.3     1  UNL1        0.0582
     18 C          59.8253   93.3713    1.2172 C.3     1  UNL1        0.1686
     19 C          59.3634   93.2762   -0.2067 C.3     1  UNL1        0.0582
     20 C          60.3521   93.4111   -1.3265 C.3     1  UNL1        0.0489
     21 C          59.0929   93.2028   -2.1145 C.3     1  UNL1        0.0161
     22 C          60.9035   93.4736   -2.7201 C.3     1  UNL1        0.0161
     23 C          61.1921   89.2583    9.2923 C.ar    1  UNL1        0.0507
     24 C          62.4407   89.4693   10.0965 C.ar    1  UNL1        0.0160
     25 C          62.7435   88.5730   11.2604 C.ar    1  UNL1        0.0160
     26 C          61.7978   87.4657   11.6204 C.ar    1  UNL1        0.0517
     27 C          60.5493   87.2547   10.8163 C.ar    1  UNL1        0.0160
     28 C          60.2464   88.1510    9.6523 C.ar    1  UNL1        0.0160
     29 N          62.1006   86.5694   12.7843 N.am    1  UNL1       -0.2680
     30 C          62.2761   85.0951   12.5700 C.2     1  UNL1        0.3093
     31 O          62.1487   84.5173   11.1916 O.2     1  UNL1       -0.2521
     32 N          62.5789   84.1988   13.7339 N.am    1  UNL1       -0.2508
     33 H          62.1842   86.9486   13.6890 H       1  UNL1        0.1564
     34 H          62.6625   84.5781   14.6386 H       1  UNL1        0.1579
     35 C          62.7544   82.7245   13.5196 C.ar    1  UNL1        0.1771
     36 C          62.5899   81.9971   12.2182 C.ar    1  UNL1        0.0734
     37 C          62.8590   80.5419   12.4633 C.ar    1  UNL1        0.1549
     38 O          63.1898   80.3700   13.9163 O.2     1  UNL1       -0.3565
     39 N          63.1252   81.7191   14.5691 N.ar    1  UNL1       -0.0621
     40 C          62.8065   79.4502   11.4359 C.3     1  UNL1        0.0539
     41 C          63.1554   80.4412   10.3653 C.3     1  UNL1        0.0076
     42 C          62.4576   78.4593   12.5066 C.3     1  UNL1        0.0076
     43 C          62.7540   78.3587   10.4086 C.3     1  UNL1        0.0076
@<TRIPOS>BOND
     1    12    13    1
     2    13    14    1
     3    14    15    1
     4    14    16    1
     5    14    17    1
     6    17    18    1
     7    18    11    1
     8    11     5    1
     9     5     6   ar
    10     6     7   ar
    11     7     8   ar
    12     8     1    1
    13     1     2    2
    14     1     3   am
    15     3    23    1
    16    23    24   ar
    17    24    25   ar
    18    25    26   ar
    19    26    29    1
    20    29    30   am
    21    30    31    2
    22    30    32   am
    23    32    35    1
    24    35    36   ar
    25    36    37   ar
    26    37    40    1
    27    40    41    1
    28    40    42    1
    29    40    43    1
    30    37    38   ar
    31    38    39   ar
    32    26    27   ar
    33    27    28   ar
    34     8     9   ar
    35     9    10   ar
    36    18    19    1
    37    19    20    1
    38    20    21    1
    39    20    22    1
    40    20    13    1
    41    10     5   ar
    42    28    23   ar
    43    39    35   ar
    44     3     4    1
    45    29    33    1
    46    32    34    1
@<TRIPOS>MOLECULE
*****
 43 46 0 0 0
SMALL
GASTEIGER

@<TRIPOS>ATOM
      1 C          60.0495   89.6138    7.0074 C.2     1  UNL1        0.2672
      2 O          59.5811   88.1888    7.0054 O.2     1  UNL1       -0.2682
      3 N          60.8371   90.1427    8.1692 N.am    1  UNL1       -0.2791
      4 H          61.1445   91.0780    8.1705 H       1  UNL1        0.1552
      5 C          59.0918   92.3018    3.5278 C.ar    1  UNL1        0.1575
      6 C          60.5108   91.8929    3.7914 C.ar    1  UNL1        0.0402
      7 C          60.8300   90.9969    4.9512 C.ar    1  UNL1        0.0269
      8 C          59.7303   90.5098    5.8475 C.ar    1  UNL1        0.1350
      9 N          58.3114   90.9186    5.5840 N.ar    1  UNL1       -0.2361
     10 C          57.9921   91.8147    4.4241 C.ar    1  UNL1        0.1357
     11 O          58.7726   93.1978    2.3679 O.3     1  UNL1       -0.4775
     12 C          62.6182   93.6581   -2.2146 C.3     1  UNL1        0.0895
     13 N          61.6568   93.5431   -1.0690 N.3     1  UNL1       -0.2763
     14 C          60.1922   93.3581   -1.3346 C.3     1  UNL1        0.0489
     15 C          60.7069   93.4159   -2.7423 C.3     1  UNL1        0.0161
     16 C          58.9063   93.1931   -2.0892 C.3     1  UNL1        0.0161
     17 C          59.2308   93.2430   -0.1890 C.3     1  UNL1        0.0582
     18 C          59.7340   93.3129    1.2223 C.3     1  UNL1        0.1686
     19 C          61.1986   93.4979    1.4880 C.3     1  UNL1        0.0582
     20 C          62.1600   93.6130    0.3424 C.3     1  UNL1        0.0489
     21 C          63.1120   93.7379    1.4948 C.3     1  UNL1        0.0161
     22 C          63.4521   93.7715   -0.4030 C.3     1  UNL1        0.0161
     23 C          61.1563   89.2467    9.3290 C.ar    1  UNL1        0.0507
     24 C          62.3390   89.5434   10.2028 C.ar    1  UNL1        0.0160
     25 C          62.6582   88.6474   11.3626 C.ar    1  UNL1        0.0160
     26 C          61.7948   87.4547   11.6487 C.ar    1  UNL1        0.0517
     27 C          60.6122   87.1579   10.7751 C.ar    1  UNL1        0.0160
     28 C          60.2929   88.0540    9.6152 C.ar    1  UNL1        0.0160
     29 N          62.1140   86.5586   12.8085 N.am    1  UNL1       -0.2680
     30 C          62.2926   85.0852   12.5911 C.2     1  UNL1        0.3093
     31 O          62.1520   84.5079   11.2138 O.2     1  UNL1       -0.2521
     32 N          62.6118   84.1892   13.7509 N.am    1  UNL1       -0.2508
     33 H          62.2063   86.9376   13.7125 H       1  UNL1        0.1564
     34 H          62.7041   84.5681   14.6549 H       1  UNL1        0.1579
     35 C          62.7905   82.7158   13.5334 C.ar    1  UNL1        0.1771
     36 C          62.5863   81.9843   12.2399 C.ar    1  UNL1        0.0734
     37 C          62.8743   80.5317   12.4784 C.ar    1  UNL1        0.1549
     38 O          63.2565   80.3653   13.9194 O.2     1  UNL1       -0.3565
     39 N          63.2046   81.7153   14.5715 N.ar    1  UNL1       -0.0621
     40 C          62.7942   79.4374   11.4555 C.3     1  UNL1        0.0539
     41 C          63.1057   80.4273   10.3724 C.3     1  UNL1        0.0076
     42 C          62.4827   78.4477   12.5387 C.3     1  UNL1        0.0076
     43 C          62.7141   78.3433   10.4327 C.3     1  UNL1        0.0076
@<TRIPOS>BOND
     1    12    13    1
     2    13    14    1
     3    14    15    1
     4    14    16    1
     5    14    17    1
     6    17    18    1
     7    18    11    1
     8    11     5    1
     9     5     6   ar
    10     6     7   ar
    11     7     8   ar
    12     8     1    1
    13     1     2    2
    14     1     3   am
    15     3    23    1
    16    23    24   ar
    17    24    25   ar
    18    25    26   ar
    19    26    29    1
    20    29    30   am
    21    30    31    2
    22    30    32   am
    23    32    35    1
    24    35    36   ar
    25    36    37   ar
    26    37    40    1
    27    40    41    1
    28    40    42    1
    29    40    43    1
    30    37    38   ar
    31    38    39   ar
    32    26    27   ar
    33    27    28   ar
    34     8     9   ar
    35     9    10   ar
    36    18    19    1
    37    19    20    1
    38    20    21    1
    39    20    22    1
    40    20    13    1
    41    10     5   ar
    42    28    23   ar
    43    39    35   ar
    44     3     4    1
    45    29    33    1
    46    32    34    1
