@<TRIPOS>MOLECULE
*****
 32 35 0 0 0
SMALL
GASTEIGER

@<TRIPOS>ATOM
      1 C          64.0808   91.2189   12.1274 C.ar    1  UNL1        0.1311
      2 C          64.0262   90.0105   13.0145 C.ar    1  UNL1        0.0339
      3 C          63.1858   88.8310   12.6241 C.ar    1  UNL1        0.0027
      4 C          62.4000   88.8599   11.3468 C.ar    1  UNL1        0.0283
      5 C          62.4545   90.0683   10.4597 C.ar    1  UNL1        0.2196
      6 F          61.6687   90.0971    9.1824 F       1  UNL1       -0.1835
      7 N          63.2949   91.2478   10.8501 N.ar    1  UNL1       -0.2035
      8 N          64.9212   92.3984   12.5177 N.pl3   1  UNL1       -0.3143
      9 H          64.4993   93.1921   12.9194 H       1  UNL1        0.1485
     10 C          66.4045   92.3688   12.2962 C.3     1  UNL1        0.1201
     11 C          66.7086   94.3868   10.6883 C.ar    1  UNL1        0.2225
     12 N          67.2921   94.9750    9.4379 N.ar    1  UNL1       -0.2080
     13 C          68.1549   94.1334    8.5450 C.ar    1  UNL1        0.1316
     14 C          68.4343   92.7037    8.9025 C.ar    1  UNL1        0.1592
     15 F          69.2971   91.8622    8.0095 F       1  UNL1       -0.2025
     16 C          67.8508   92.1155   10.1529 C.ar    1  UNL1        0.0333
     17 C          66.9879   92.9571   11.0458 C.ar    1  UNL1        0.0529
     18 C          65.9279   96.7244   11.5107 C.3     1  UNL1        0.2542
     19 O          65.8457   95.2284   11.5812 O.3     1  UNL1       -0.4563
     20 C          61.5595   87.6803   10.9564 C.3     1  UNL1        0.0582
     21 C          62.1748   86.5364   10.2060 C.ar    1  UNL1        0.0044
     22 C          62.2810   86.4157    8.7147 C.ar    1  UNL1        0.0966
     23 N          62.9638   85.1172    8.4023 N.ar    1  UNL1       -0.2273
     24 C          63.2795   84.4353    9.7005 C.ar    1  UNL1        0.1403
     25 N          63.9480   83.1291   10.0116 N.ar    1  UNL1       -0.3369
     26 C          64.1290   82.7001   11.4374 C.ar    1  UNL1        0.0839
     27 C          63.6413   83.5772   12.5522 C.ar    1  UNL1        0.0855
     28 C          62.9728   84.8835   12.2412 C.ar    1  UNL1        0.0145
     29 C          62.7919   85.3125   10.8153 C.ar    1  UNL1        0.0325
     30 H          64.2681   82.5534    9.2799 H       1  UNL1        0.1674
     31 C          63.8223   83.1481   13.9782 C.1     1  UNL1        0.1019
     32 N          64.0032   82.7190   15.4040 N.1     1  UNL1       -0.1908
@<TRIPOS>BOND
     1    18    19    1
     2    19    11    1
     3    11    12   ar
     4    12    13   ar
     5    13    14   ar
     6    14    15    1
     7    14    16   ar
     8    16    17   ar
     9    17    10    1
    10    10     8    1
    11     8     1    1
    12     1     2   ar
    13     2     3   ar
    14     3     4   ar
    15     4    20    1
    16    20    21    1
    17    21    22   ar
    18    22    23   ar
    19    23    24   ar
    20    24    25   ar
    21    25    26   ar
    22    26    27   ar
    23    27    31    1
    24    31    32    3
    25    27    28   ar
    26    28    29   ar
    27     4     5   ar
    28     5     6    1
    29     5     7   ar
    30    17    11   ar
    31     7     1   ar
    32    29    21   ar
    33    29    24    1
    34     8     9    1
    35    25    30    1
@<TRIPOS>MOLECULE
*****
 32 35 0 0 0
SMALL
GASTEIGER

@<TRIPOS>ATOM
      1 C          64.0756   85.3685   15.4528 C.ar    1  UNL1        0.1311
      2 C          64.4579   86.2544   14.3043 C.ar    1  UNL1        0.0339
      3 C          64.2826   87.7402   14.4125 C.ar    1  UNL1        0.0027
      4 C          63.7250   88.3401   15.6692 C.ar    1  UNL1        0.0283
      5 C          63.3427   87.4542   16.8177 C.ar    1  UNL1        0.2196
      6 F          62.7851   88.0541   18.0743 F       1  UNL1       -0.1835
      7 N          63.5180   85.9685   16.7095 N.ar    1  UNL1       -0.2035
      8 N          64.2508   83.8828   15.3447 N.pl3   1  UNL1       -0.3143
      9 H          65.0875   83.4624   15.6489 H       1  UNL1        0.1485
     10 C          63.1514   83.0374   14.7730 C.3     1  UNL1        0.1201
     11 C          62.6198   81.2087   13.0058 C.ar    1  UNL1        0.2225
     12 N          62.7266   80.6874   11.6033 N.ar    1  UNL1       -0.2080
     13 C          63.4719   81.4736   10.5657 C.ar    1  UNL1        0.1316
     14 C          64.1103   82.7810   10.9306 C.ar    1  UNL1        0.1592
     15 F          64.8555   83.5671    9.8929 F       1  UNL1       -0.2025
     16 C          64.0034   83.3023   12.3330 C.ar    1  UNL1        0.0333
     17 C          63.2582   82.5161   13.3706 C.ar    1  UNL1        0.0529
     18 C          60.3908   80.5882   14.1875 C.3     1  UNL1        0.2542
     19 O          61.8746   80.4225   14.0434 O.3     1  UNL1       -0.4563
     20 C          63.5498   89.8260   15.7773 C.3     1  UNL1        0.0582
     21 C          64.2514   90.7361   14.8132 C.ar    1  UNL1        0.0044
     22 C          65.3889   91.6578   15.1394 C.ar    1  UNL1        0.0966
     23 N          65.7791   92.3755   13.8814 N.ar    1  UNL1       -0.2273
     24 C          64.8828   91.8975   12.7778 C.ar    1  UNL1        0.1403
     25 N          64.8044   92.2539   11.3229 N.ar    1  UNL1       -0.3369
     26 C          63.7817   91.5970   10.4439 C.ar    1  UNL1        0.0839
     27 C          62.8375   90.5838   11.0198 C.ar    1  UNL1        0.0855
     28 C          62.9159   90.2273   12.4747 C.ar    1  UNL1        0.0145
     29 C          63.9385   90.8842   13.3537 C.ar    1  UNL1        0.0325
     30 H          65.4241   92.9189   10.9449 H       1  UNL1        0.1674
     31 C          61.8148   89.9269   10.1407 C.1     1  UNL1        0.1019
     32 N          60.7922   89.2700    9.2617 N.1     1  UNL1       -0.1908
@<TRIPOS>BOND
     1    18    19    1
     2    19    11    1
     3    11    12   ar
     4    12    13   ar
     5    13    14   ar
     6    14    15    1
     7    14    16   ar
     8    16    17   ar
     9    17    10    1
    10    10     8    1
    11     8     1    1
    12     1     2   ar
    13     2     3   ar
    14     3     4   ar
    15     4    20    1
    16    20    21    1
    17    21    22   ar
    18    22    23   ar
    19    23    24   ar
    20    24    25   ar
    21    25    26   ar
    22    26    27   ar
    23    27    31    1
    24    31    32    3
    25    27    28   ar
    26    28    29   ar
    27     4     5   ar
    28     5     6    1
    29     5     7   ar
    30    17    11   ar
    31     7     1   ar
    32    29    21   ar
    33    29    24    1
    34     8     9    1
    35    25    30    1
@<TRIPOS>MOLECULE
*****
 32 35 0 0 0
SMALL
GASTEIGER

@<TRIPOS>ATOM
      1 C          63.7587   89.4747   15.6794 C.ar    1  UNL1        0.1311
      2 C          64.2994   88.6312   14.5630 C.ar    1  UNL1        0.0339
      3 C          64.2197   87.1357   14.6468 C.ar    1  UNL1        0.0027
      4 C          63.5995   86.4836   15.8468 C.ar    1  UNL1        0.0283
      5 C          63.0588   87.3271   16.9632 C.ar    1  UNL1        0.2196
      6 F          62.4386   86.6751   18.1632 F       1  UNL1       -0.1835
      7 N          63.1385   88.8226   16.8794 N.ar    1  UNL1       -0.2035
      8 N          63.8383   90.9702   15.5957 N.pl3   1  UNL1       -0.3143
      9 H          63.0329   91.5153   15.7485 H       1  UNL1        0.1485
     10 C          65.1451   91.6353   15.2792 C.3     1  UNL1        0.1201
     11 C          66.5734   93.0423   13.6268 C.ar    1  UNL1        0.2225
     12 N          66.8542   93.5181   12.2323 N.ar    1  UNL1       -0.2080
     13 C          65.9877   93.0629   11.0957 C.ar    1  UNL1        0.1316
     14 C          64.8403   92.1318   11.3536 C.ar    1  UNL1        0.1592
     15 F          63.9738   91.6766   10.2169 F       1  UNL1       -0.2025
     16 C          64.5595   91.6559   12.7481 C.ar    1  UNL1        0.0333
     17 C          65.4260   92.1112   13.8847 C.ar    1  UNL1        0.0529
     18 C          68.6555   92.7055   15.1437 C.3     1  UNL1        0.2542
     19 O          67.4399   93.4975   14.7634 O.3     1  UNL1       -0.4563
     20 C          63.5198   84.9880   15.9305 C.3     1  UNL1        0.0582
     21 C          63.9447   84.1478   14.7628 C.ar    1  UNL1        0.0044
     22 C          65.1885   84.3377   13.9462 C.ar    1  UNL1        0.0966
     23 N          65.2129   83.2774   12.8854 N.ar    1  UNL1       -0.2273
     24 C          63.9842   82.4323   13.0464 C.ar    1  UNL1        0.1403
     25 N          63.4777   81.2424   12.2864 N.ar    1  UNL1       -0.3369
     26 C          62.1875   80.5904   12.6867 C.ar    1  UNL1        0.0839
     27 C          61.4038   81.1283   13.8471 C.ar    1  UNL1        0.0855
     28 C          61.9102   82.3182   14.6071 C.ar    1  UNL1        0.0145
     29 C          63.2004   82.9702   14.2068 C.ar    1  UNL1        0.0325
     30 H          63.9922   80.8893   11.5249 H       1  UNL1        0.1674
     31 C          60.1135   80.4763   14.2474 C.1     1  UNL1        0.1019
     32 N          58.8233   79.8244   14.6476 N.1     1  UNL1       -0.1908
@<TRIPOS>BOND
     1    18    19    1
     2    19    11    1
     3    11    12   ar
     4    12    13   ar
     5    13    14   ar
     6    14    15    1
     7    14    16   ar
     8    16    17   ar
     9    17    10    1
    10    10     8    1
    11     8     1    1
    12     1     2   ar
    13     2     3   ar
    14     3     4   ar
    15     4    20    1
    16    20    21    1
    17    21    22   ar
    18    22    23   ar
    19    23    24   ar
    20    24    25   ar
    21    25    26   ar
    22    26    27   ar
    23    27    31    1
    24    31    32    3
    25    27    28   ar
    26    28    29   ar
    27     4     5   ar
    28     5     6    1
    29     5     7   ar
    30    17    11   ar
    31     7     1   ar
    32    29    21   ar
    33    29    24    1
    34     8     9    1
    35    25    30    1
@<TRIPOS>MOLECULE
*****
 32 35 0 0 0
SMALL
GASTEIGER

@<TRIPOS>ATOM
      1 C          62.5108   89.8216   10.8294 C.ar    1  UNL1        0.1311
      2 C          63.0220   88.8861   11.8847 C.ar    1  UNL1        0.0339
      3 C          62.7955   87.4093   11.7513 C.ar    1  UNL1        0.0027
      4 C          62.0578   86.8680   10.5627 C.ar    1  UNL1        0.0283
      5 C          61.5465   87.8035    9.5074 C.ar    1  UNL1        0.2196
      6 F          60.8088   87.2622    8.3189 F       1  UNL1       -0.1835
      7 N          61.7730   89.2803    9.6409 N.ar    1  UNL1       -0.2035
      8 N          62.7372   91.2983   10.9628 N.pl3   1  UNL1       -0.3143
      9 H          62.0055   91.8832   11.2656 H       1  UNL1        0.1485
     10 C          64.0786   91.8841   10.6348 C.3     1  UNL1        0.1201
     11 C          65.9385   93.4853   11.4874 C.ar    1  UNL1        0.2225
     12 N          66.8390   93.9605   12.5890 N.ar    1  UNL1       -0.2080
     13 C          66.7800   93.3098   13.9392 C.ar    1  UNL1        0.1316
     14 C          65.8206   92.1840   14.1880 C.ar    1  UNL1        0.1592
     15 F          65.7617   91.5334   15.5383 F       1  UNL1       -0.2025
     16 C          64.9201   91.7088   13.0864 C.ar    1  UNL1        0.0333
     17 C          64.9791   92.3594   11.7362 C.ar    1  UNL1        0.0529
     18 C          67.2758   94.1212    9.3527 C.3     1  UNL1        0.2542
     19 O          65.9975   94.1360   10.1372 O.3     1  UNL1       -0.4563
     20 C          61.8313   85.3912   10.4293 C.3     1  UNL1        0.0582
     21 C          62.8389   84.4252   10.9786 C.ar    1  UNL1        0.0044
     22 C          63.6986   83.4956   10.1745 C.ar    1  UNL1        0.0966
     23 N          64.5547   82.7152   11.1275 N.ar    1  UNL1       -0.2273
     24 C          64.2241   83.1626   12.5205 C.ar    1  UNL1        0.1403
     25 N          64.7516   82.7441   13.8609 N.ar    1  UNL1       -0.3369
     26 C          64.2186   83.3824   15.1092 C.ar    1  UNL1        0.0839
     27 C          63.1582   84.4393   15.0172 C.ar    1  UNL1        0.0855
     28 C          62.6306   84.8578   13.6769 C.ar    1  UNL1        0.0145
     29 C          63.1636   84.2194   12.4286 C.ar    1  UNL1        0.0325
     30 H          65.4476   82.0504   13.9213 H       1  UNL1        0.1674
     31 C          62.6252   85.0777   16.2657 C.1     1  UNL1        0.1019
     32 N          62.0923   85.7161   17.5140 N.1     1  UNL1       -0.1908
@<TRIPOS>BOND
     1    18    19    1
     2    19    11    1
     3    11    12   ar
     4    12    13   ar
     5    13    14   ar
     6    14    15    1
     7    14    16   ar
     8    16    17   ar
     9    17    10    1
    10    10     8    1
    11     8     1    1
    12     1     2   ar
    13     2     3   ar
    14     3     4   ar
    15     4    20    1
    16    20    21    1
    17    21    22   ar
    18    22    23   ar
    19    23    24   ar
    20    24    25   ar
    21    25    26   ar
    22    26    27   ar
    23    27    31    1
    24    31    32    3
    25    27    28   ar
    26    28    29   ar
    27     4     5   ar
    28     5     6    1
    29     5     7   ar
    30    17    11   ar
    31     7     1   ar
    32    29    21   ar
    33    29    24    1
    34     8     9    1
    35    25    30    1
@<TRIPOS>MOLECULE
*****
 32 35 0 0 0
SMALL
GASTEIGER

@<TRIPOS>ATOM
      1 C          63.5582   89.5965   15.6670 C.ar    1  UNL1        0.1311
      2 C          64.2263   88.7965   14.5882 C.ar    1  UNL1        0.0339
      3 C          64.2766   87.3006   14.6860 C.ar    1  UNL1        0.0027
      4 C          63.6589   86.6047   15.8625 C.ar    1  UNL1        0.0283
      5 C          62.9909   87.4046   16.9412 C.ar    1  UNL1        0.2196
      6 F          62.3732   86.7087   18.1177 F       1  UNL1       -0.1835
      7 N          62.9405   88.9006   16.8434 N.ar    1  UNL1       -0.2035
      8 N          63.5078   91.0925   15.5692 N.pl3   1  UNL1       -0.3143
      9 H          62.7916   91.5282   15.0531 H       1  UNL1        0.1485
     10 C          64.5486   91.9246   16.2580 C.3     1  UNL1        0.1201
     11 C          65.9639   92.2837   14.1090 C.ar    1  UNL1        0.2225
     12 N          67.2920   92.5180   13.4524 N.ar    1  UNL1       -0.2080
     13 C          68.5329   92.6278   14.2880 C.ar    1  UNL1        0.1316
     14 C          68.4456   92.5031   15.7802 C.ar    1  UNL1        0.1592
     15 F          69.6866   92.6129   16.6158 F       1  UNL1       -0.2025
     16 C          67.1175   92.2688   16.4369 C.ar    1  UNL1        0.0333
     17 C          65.8767   92.1590   15.6012 C.ar    1  UNL1        0.0529
     18 C          64.8324   91.9651   11.7921 C.3     1  UNL1        0.2542
     19 O          64.7231   92.1739   13.2734 O.3     1  UNL1       -0.4563
     20 C          63.7093   85.1086   15.9602 C.3     1  UNL1        0.0582
     21 C          64.1161   84.2925   14.7692 C.ar    1  UNL1        0.0044
     22 C          65.3508   84.4948   13.9419 C.ar    1  UNL1        0.0966
     23 N          65.3574   83.4581   12.8578 N.ar    1  UNL1       -0.2273
     24 C          64.1267   82.6151   13.0152 C.ar    1  UNL1        0.1403
     25 N          63.6055   81.4445   12.2354 N.ar    1  UNL1       -0.3369
     26 C          62.3171   80.7897   12.6369 C.ar    1  UNL1        0.0839
     27 C          61.5500   81.3054   13.8182 C.ar    1  UNL1        0.0855
     28 C          62.0711   82.4759   14.5980 C.ar    1  UNL1        0.0145
     29 C          63.3595   83.1308   14.1965 C.ar    1  UNL1        0.0325
     30 H          64.1090   81.1060   11.4600 H       1  UNL1        0.1674
     31 C          60.2615   80.6504   14.2197 C.1     1  UNL1        0.1019
     32 N          58.9732   79.9955   14.6212 N.1     1  UNL1       -0.1908
@<TRIPOS>BOND
     1    18    19    1
     2    19    11    1
     3    11    12   ar
     4    12    13   ar
     5    13    14   ar
     6    14    15    1
     7    14    16   ar
     8    16    17   ar
     9    17    10    1
    10    10     8    1
    11     8     1    1
    12     1     2   ar
    13     2     3   ar
    14     3     4   ar
    15     4    20    1
    16    20    21    1
    17    21    22   ar
    18    22    23   ar
    19    23    24   ar
    20    24    25   ar
    21    25    26   ar
    22    26    27   ar
    23    27    31    1
    24    31    32    3
    25    27    28   ar
    26    28    29   ar
    27     4     5   ar
    28     5     6    1
    29     5     7   ar
    30    17    11   ar
    31     7     1   ar
    32    29    21   ar
    33    29    24    1
    34     8     9    1
    35    25    30    1
@<TRIPOS>MOLECULE
*****
 32 35 0 0 0
SMALL
GASTEIGER

@<TRIPOS>ATOM
      1 C          63.7643   86.0076   15.4618 C.ar    1  UNL1        0.1311
      2 C          64.3136   86.7146   14.2582 C.ar    1  UNL1        0.0339
      3 C          64.4057   88.2117   14.2450 C.ar    1  UNL1        0.0027
      4 C          63.9486   89.0018   15.4353 C.ar    1  UNL1        0.0283
      5 C          63.3993   88.2949   16.6388 C.ar    1  UNL1        0.2196
      6 F          62.9422   89.0850   17.8291 F       1  UNL1       -0.1835
      7 N          63.3072   86.7978   16.6520 N.ar    1  UNL1       -0.2035
      8 N          63.6722   84.5106   15.4751 N.pl3   1  UNL1       -0.3143
      9 H          64.4200   83.9745   15.8254 H       1  UNL1        0.1485
     10 C          62.4408   83.8301   14.9547 C.3     1  UNL1        0.1201
     11 C          62.8994   83.2277   12.4694 C.ar    1  UNL1        0.2225
     12 N          63.0126   82.2017   11.3811 N.ar    1  UNL1       -0.2080
     13 C          62.7804   80.7522   11.6897 C.ar    1  UNL1        0.1316
     14 C          62.4350   80.3288   13.0866 C.ar    1  UNL1        0.1592
     15 F          62.2028   78.8793   13.3951 F       1  UNL1       -0.2025
     16 C          62.3218   81.3548   14.1749 C.ar    1  UNL1        0.0333
     17 C          62.5540   82.8042   13.8663 C.ar    1  UNL1        0.0529
     18 C          62.1233   85.4438   11.3576 C.3     1  UNL1        0.2542
     19 O          63.1316   84.6771   12.1608 O.3     1  UNL1       -0.4563
     20 C          64.0407   90.4990   15.4220 C.3     1  UNL1        0.0582
     21 C          64.6072   91.2050   14.2259 C.ar    1  UNL1        0.0044
     22 C          65.8497   92.0449   14.2045 C.ar    1  UNL1        0.0966
     23 N          66.0410   92.5540   12.8065 N.ar    1  UNL1       -0.2273
     24 C          64.9167   92.0287   11.9640 C.ar    1  UNL1        0.1403
     25 N          64.5854   92.2018   10.5113 N.ar    1  UNL1       -0.3369
     26 C          63.3678   91.5411    9.9359 C.ar    1  UNL1        0.0839
     27 C          62.4817   90.7074   10.8132 C.ar    1  UNL1        0.0855
     28 C          62.8130   90.5343   12.2658 C.ar    1  UNL1        0.0145
     29 C          64.0305   91.1949   12.8412 C.ar    1  UNL1        0.0325
     30 H          65.1670   92.7490    9.9356 H       1  UNL1        0.1674
     31 C          61.2641   90.0467   10.2377 C.1     1  UNL1        0.1019
     32 N          60.0466   89.3861    9.6622 N.1     1  UNL1       -0.1908
@<TRIPOS>BOND
     1    18    19    1
     2    19    11    1
     3    11    12   ar
     4    12    13   ar
     5    13    14   ar
     6    14    15    1
     7    14    16   ar
     8    16    17   ar
     9    17    10    1
    10    10     8    1
    11     8     1    1
    12     1     2   ar
    13     2     3   ar
    14     3     4   ar
    15     4    20    1
    16    20    21    1
    17    21    22   ar
    18    22    23   ar
    19    23    24   ar
    20    24    25   ar
    21    25    26   ar
    22    26    27   ar
    23    27    31    1
    24    31    32    3
    25    27    28   ar
    26    28    29   ar
    27     4     5   ar
    28     5     6    1
    29     5     7   ar
    30    17    11   ar
    31     7     1   ar
    32    29    21   ar
    33    29    24    1
    34     8     9    1
    35    25    30    1
@<TRIPOS>MOLECULE
*****
 32 35 0 0 0
SMALL
GASTEIGER

@<TRIPOS>ATOM
      1 C          63.7615   89.4506   15.6713 C.ar    1  UNL1        0.1311
      2 C          64.4354   88.6672   14.5840 C.ar    1  UNL1        0.0339
      3 C          64.3587   87.1692   14.5813 C.ar    1  UNL1        0.0027
      4 C          63.6083   86.4546   15.6658 C.ar    1  UNL1        0.0283
      5 C          62.9344   87.2380   16.7531 C.ar    1  UNL1        0.2196
      6 F          62.1839   86.5234   17.8375 F       1  UNL1       -0.1835
      7 N          63.0110   88.7360   16.7558 N.ar    1  UNL1       -0.2035
      8 N          63.8381   90.9487   15.6742 N.pl3   1  UNL1       -0.3143
      9 H          63.0346   91.4822   15.8716 H       1  UNL1        0.1485
     10 C          65.1388   91.6338   15.3762 C.3     1  UNL1        0.1201
     11 C          66.4756   93.1978   13.7897 C.ar    1  UNL1        0.2225
     12 N          66.7456   93.7283   12.4129 N.ar    1  UNL1       -0.2080
     13 C          65.9490   93.2251   11.2457 C.ar    1  UNL1        0.1316
     14 C          64.8824   92.1915   11.4554 C.ar    1  UNL1        0.1592
     15 F          64.0858   91.6884   10.2881 F       1  UNL1       -0.2025
     16 C          64.6123   91.6611   12.8322 C.ar    1  UNL1        0.0333
     17 C          65.4089   92.1643   13.9994 C.ar    1  UNL1        0.0529
     18 C          68.5745   93.0480   15.3135 C.3     1  UNL1        0.2542
     19 O          67.2722   93.7010   14.9569 O.3     1  UNL1       -0.4563
     20 C          63.5316   84.9565   15.6630 C.3     1  UNL1        0.0582
     21 C          63.7974   84.1943   14.3987 C.ar    1  UNL1        0.0044
     22 C          64.6497   82.9665   14.2720 C.ar    1  UNL1        0.0966
     23 N          64.6365   82.5395   12.8341 N.ar    1  UNL1       -0.2273
     24 C          63.7762   83.5034   12.0721 C.ar    1  UNL1        0.1403
     25 N          63.3980   83.5820   10.6227 N.ar    1  UNL1       -0.3369
     26 C          62.5012   84.6833   10.1403 C.ar    1  UNL1        0.0839
     27 C          61.9826   85.7061   11.1073 C.ar    1  UNL1        0.0855
     28 C          62.3608   85.6275   12.5567 C.ar    1  UNL1        0.0145
     29 C          63.2576   84.5262   13.0391 C.ar    1  UNL1        0.0325
     30 H          63.7384   82.9107    9.9881 H       1  UNL1        0.1674
     31 C          61.0857   86.8075   10.6248 C.1     1  UNL1        0.1019
     32 N          60.1889   87.9088   10.1424 N.1     1  UNL1       -0.1908
@<TRIPOS>BOND
     1    18    19    1
     2    19    11    1
     3    11    12   ar
     4    12    13   ar
     5    13    14   ar
     6    14    15    1
     7    14    16   ar
     8    16    17   ar
     9    17    10    1
    10    10     8    1
    11     8     1    1
    12     1     2   ar
    13     2     3   ar
    14     3     4   ar
    15     4    20    1
    16    20    21    1
    17    21    22   ar
    18    22    23   ar
    19    23    24   ar
    20    24    25   ar
    21    25    26   ar
    22    26    27   ar
    23    27    31    1
    24    31    32    3
    25    27    28   ar
    26    28    29   ar
    27     4     5   ar
    28     5     6    1
    29     5     7   ar
    30    17    11   ar
    31     7     1   ar
    32    29    21   ar
    33    29    24    1
    34     8     9    1
    35    25    30    1
@<TRIPOS>MOLECULE
*****
 32 35 0 0 0
SMALL
GASTEIGER

@<TRIPOS>ATOM
      1 C          63.5517   87.4607   16.0652 C.ar    1  UNL1        0.1311
      2 C          64.4096   87.3073   14.8443 C.ar    1  UNL1        0.0339
      3 C          64.4816   85.9851   14.1397 C.ar    1  UNL1        0.0027
      4 C          63.6958   84.8163   14.6559 C.ar    1  UNL1        0.0283
      5 C          62.8380   84.9697   15.8769 C.ar    1  UNL1        0.2196
      6 F          62.0522   83.8009   16.3931 F       1  UNL1       -0.1835
      7 N          62.7660   86.2919   16.5815 N.ar    1  UNL1       -0.2035
      8 N          63.4797   88.7829   16.7699 N.pl3   1  UNL1       -0.3143
      9 H          63.7318   88.8491   17.7192 H       1  UNL1        0.1485
     10 C          63.0235   90.0043   16.0281 C.3     1  UNL1        0.1201
     11 C          64.0446   91.0214   13.8665 C.ar    1  UNL1        0.2225
     12 N          65.0499   91.9129   13.1996 N.ar    1  UNL1       -0.2080
     13 C          66.0391   92.6787   14.0272 C.ar    1  UNL1        0.1316
     14 C          66.0231   92.5530   15.5219 C.ar    1  UNL1        0.1592
     15 F          67.0123   93.3188   16.3495 F       1  UNL1       -0.2025
     16 C          65.0179   91.6615   16.1888 C.ar    1  UNL1        0.0333
     17 C          64.0287   90.8957   15.3611 C.ar    1  UNL1        0.0529
     18 C          63.0239   90.4363   11.5501 C.3     1  UNL1        0.2542
     19 O          63.0554   90.2557   13.0388 O.3     1  UNL1       -0.4563
     20 C          63.7679   83.4940   13.9512 C.3     1  UNL1        0.0582
     21 C          63.8946   83.4462   12.4574 C.ar    1  UNL1        0.0044
     22 C          64.7263   82.4746   11.6737 C.ar    1  UNL1        0.0966
     23 N          64.5576   82.7896   10.2169 N.ar    1  UNL1       -0.2273
     24 C          63.6216   83.9559   10.1002 C.ar    1  UNL1        0.1403
     25 N          63.0895   84.7008    8.9120 N.ar    1  UNL1       -0.3369
     26 C          62.1477   85.8516    9.1084 C.ar    1  UNL1        0.0839
     27 C          61.7379   86.2574   10.4931 C.ar    1  UNL1        0.0855
     28 C          62.2700   85.5125   11.6814 C.ar    1  UNL1        0.0145
     29 C          63.2119   84.3617   11.4849 C.ar    1  UNL1        0.0325
     30 H          63.3585   84.4345    8.0031 H       1  UNL1        0.1674
     31 C          60.7960   87.4082   10.6896 C.1     1  UNL1        0.1019
     32 N          59.8542   88.5590   10.8860 N.1     1  UNL1       -0.1908
@<TRIPOS>BOND
     1    18    19    1
     2    19    11    1
     3    11    12   ar
     4    12    13   ar
     5    13    14   ar
     6    14    15    1
     7    14    16   ar
     8    16    17   ar
     9    17    10    1
    10    10     8    1
    11     8     1    1
    12     1     2   ar
    13     2     3   ar
    14     3     4   ar
    15     4    20    1
    16    20    21    1
    17    21    22   ar
    18    22    23   ar
    19    23    24   ar
    20    24    25   ar
    21    25    26   ar
    22    26    27   ar
    23    27    31    1
    24    31    32    3
    25    27    28   ar
    26    28    29   ar
    27     4     5   ar
    28     5     6    1
    29     5     7   ar
    30    17    11   ar
    31     7     1   ar
    32    29    21   ar
    33    29    24    1
    34     8     9    1
    35    25    30    1
@<TRIPOS>MOLECULE
*****
 32 35 0 0 0
SMALL
GASTEIGER

@<TRIPOS>ATOM
      1 C          63.6247   84.9698   15.5608 C.ar    1  UNL1        0.1311
      2 C          64.1563   85.7411   14.3892 C.ar    1  UNL1        0.0339
      3 C          64.2032   87.2396   14.4368 C.ar    1  UNL1        0.0027
      4 C          63.7185   87.9668   15.6559 C.ar    1  UNL1        0.0283
      5 C          63.1869   87.1955   16.8275 C.ar    1  UNL1        0.2196
      6 F          62.7022   87.9228   18.0466 F       1  UNL1       -0.1835
      7 N          63.1400   85.6971   16.7799 N.ar    1  UNL1       -0.2035
      8 N          63.5778   83.4713   15.5133 N.pl3   1  UNL1       -0.3143
      9 H          62.9433   82.9804   16.0840 H       1  UNL1        0.1485
     10 C          64.4976   82.7208   14.5963 C.3     1  UNL1        0.1201
     11 C          62.9480   81.3392   13.0343 C.ar    1  UNL1        0.2225
     12 N          62.4923   80.9678   11.6543 N.ar    1  UNL1       -0.2080
     13 C          63.1305   81.6064   10.4564 C.ar    1  UNL1        0.1316
     14 C          64.2244   82.6165   10.6386 C.ar    1  UNL1        0.1592
     15 F          64.8626   83.2551    9.4406 F       1  UNL1       -0.2025
     16 C          64.6801   82.9879   12.0186 C.ar    1  UNL1        0.0333
     17 C          64.0419   82.3493   13.2164 C.ar    1  UNL1        0.0529
     18 C          60.8168   80.5804   14.3118 C.3     1  UNL1        0.2542
     19 O          62.3098   80.7006   14.2321 O.3     1  UNL1       -0.4563
     20 C          63.7654   89.4654   15.7035 C.3     1  UNL1        0.0582
     21 C          63.8969   90.2523   14.4332 C.ar    1  UNL1        0.0044
     22 C          63.0379   90.1057   13.2123 C.ar    1  UNL1        0.0966
     23 N          63.5205   91.0868   12.1855 N.ar    1  UNL1       -0.2273
     24 C          64.6778   91.8398   12.7717 C.ar    1  UNL1        0.1403
     25 N          65.5499   92.9284   12.2200 N.ar    1  UNL1       -0.3369
     26 C          66.6545   93.5013   13.0576 C.ar    1  UNL1        0.0839
     27 C          66.8871   92.9856   14.4468 C.ar    1  UNL1        0.0855
     28 C          66.0150   91.8969   14.9985 C.ar    1  UNL1        0.0145
     29 C          64.9104   91.3240   14.1609 C.ar    1  UNL1        0.0325
     30 H          65.3972   93.2669   11.3082 H       1  UNL1        0.1674
     31 C          67.9918   93.5585   15.2844 C.1     1  UNL1        0.1019
     32 N          69.0964   94.1315   16.1219 N.1     1  UNL1       -0.1908
@<TRIPOS>BOND
     1    18    19    1
     2    19    11    1
     3    11    12   ar
     4    12    13   ar
     5    13    14   ar
     6    14    15    1
     7    14    16   ar
     8    16    17   ar
     9    17    10    1
    10    10     8    1
    11     8     1    1
    12     1     2   ar
    13     2     3   ar
    14     3     4   ar
    15     4    20    1
    16    20    21    1
    17    21    22   ar
    18    22    23   ar
    19    23    24   ar
    20    24    25   ar
    21    25    26   ar
    22    26    27   ar
    23    27    31    1
    24    31    32    3
    25    27    28   ar
    26    28    29   ar
    27     4     5   ar
    28     5     6    1
    29     5     7   ar
    30    17    11   ar
    31     7     1   ar
    32    29    21   ar
    33    29    24    1
    34     8     9    1
    35    25    30    1
