@<TRIPOS>MOLECULE
*****
 21 24 0 0 0
SMALL
GASTEIGER

@<TRIPOS>ATOM
      1 C          63.3213   85.3794   12.8493 C.ar    1  UNL1        0.0961
      2 N          63.9699   86.0178   14.0418 N.ar    1  UNL1       -0.2268
      3 C          63.9435   87.5044   13.8434 C.ar    1  UNL1        0.1476
      4 C          64.4390   88.6389   14.6903 C.ar    1  UNL1        0.0397
      5 C          64.2696   90.0539   14.2222 C.ar    1  UNL1        0.0343
      6 C          63.6048   90.3343   12.9071 C.ar    1  UNL1        0.1577
      7 F          63.4354   91.7493   12.4390 F       1  UNL1       -0.2026
      8 C          63.1093   89.1998   12.0602 C.ar    1  UNL1        0.1110
      9 N          63.2787   87.7848   12.5284 N.ar    1  UNL1       -0.2906
     10 C          62.8942   86.4715   11.9140 C.ar    1  UNL1        0.0600
     11 C          62.0483   83.6969   14.9820 C.3     1  UNL1        0.0335
     12 C          62.4965   83.0662   13.6970 C.ar    1  UNL1        0.0102
     13 C          62.3082   81.5942   13.4783 C.ar    1  UNL1        0.1553
     14 F          61.6717   80.7529   14.5446 F       1  UNL1       -0.2029
     15 C          62.7565   80.9635   12.1933 C.ar    1  UNL1        0.1281
     16 N          63.3930   81.8048   11.1270 N.ar    1  UNL1       -0.2399
     17 C          63.5813   83.2768   11.3457 C.ar    1  UNL1        0.1002
     18 C          63.1331   83.9075   12.6307 C.ar    1  UNL1        0.0362
     19 C          62.2037   86.2834   10.5958 C.3     1  UNL1        0.0402
     20 C          60.9484   86.2879    9.7745 C.3     1  UNL1        0.0063
     21 C          62.2627   85.9530    9.1338 C.3     1  UNL1        0.0063
@<TRIPOS>BOND
     1    11    12    1
     2    12    13   ar
     3    13    14    1
     4    13    15   ar
     5    15    16   ar
     6    16    17   ar
     7    17    18   ar
     8    18     1    1
     9     1     2   ar
    10     2     3   ar
    11     3     4   ar
    12     4     5   ar
    13     5     6   ar
    14     6     7    1
    15     6     8   ar
    16     8     9   ar
    17     9    10   ar
    18    10    19    1
    19    19    20    1
    20    20    21    1
    21    18    12   ar
    22    10     1   ar
    23    21    19    1
    24     9     3   ar
@<TRIPOS>MOLECULE
*****
 21 24 0 0 0
SMALL
GASTEIGER

@<TRIPOS>ATOM
      1 C          62.7914   85.4413   12.0805 C.ar    1  UNL1        0.0961
      2 N          62.1733   86.2287   10.9633 N.ar    1  UNL1       -0.2268
      3 C          62.4516   87.6817   11.2110 C.ar    1  UNL1        0.1476
      4 C          62.0876   88.9183   10.4440 C.ar    1  UNL1        0.0397
      5 C          62.5137   90.2655   10.9472 C.ar    1  UNL1        0.0343
      6 C          63.3037   90.3762   12.2175 C.ar    1  UNL1        0.1577
      7 F          63.7298   91.7236   12.7207 F       1  UNL1       -0.2026
      8 C          63.6677   89.1397   12.9845 C.ar    1  UNL1        0.1110
      9 N          63.2416   87.7924   12.4813 N.ar    1  UNL1       -0.2906
     10 C          63.4516   86.4078   13.0186 C.ar    1  UNL1        0.0600
     11 C          63.6381   83.6804    9.8040 C.3     1  UNL1        0.0335
     12 C          63.1789   83.0691   11.0946 C.ar    1  UNL1        0.0102
     13 C          63.1430   81.5772   11.2469 C.ar    1  UNL1        0.1553
     14 F          63.5664   80.6968   10.1086 F       1  UNL1       -0.2029
     15 C          62.6839   80.9659   12.5373 C.ar    1  UNL1        0.1281
     16 N          62.2606   81.8464   13.6755 N.ar    1  UNL1       -0.2399
     17 C          62.2964   83.3382   13.5232 C.ar    1  UNL1        0.1002
     18 C          62.7556   83.9495   12.2328 C.ar    1  UNL1        0.0362
     19 C          64.1920   86.0521   14.2738 C.3     1  UNL1        0.0402
     20 C          64.2090   85.8576   15.7611 C.3     1  UNL1        0.0063
     21 C          65.4570   85.6305   14.9606 C.3     1  UNL1        0.0063
@<TRIPOS>BOND
     1    11    12    1
     2    12    13   ar
     3    13    14    1
     4    13    15   ar
     5    15    16   ar
     6    16    17   ar
     7    17    18   ar
     8    18     1    1
     9     1     2   ar
    10     2     3   ar
    11     3     4   ar
    12     4     5   ar
    13     5     6   ar
    14     6     7    1
    15     6     8   ar
    16     8     9   ar
    17     9    10   ar
    18    10    19    1
    19    19    20    1
    20    20    21    1
    21    18    12   ar
    22    10     1   ar
    23    21    19    1
    24     9     3   ar
@<TRIPOS>MOLECULE
*****
 21 24 0 0 0
SMALL
GASTEIGER

@<TRIPOS>ATOM
      1 C          63.3728   90.2822   12.6116 C.ar    1  UNL1        0.0961
      2 N          62.5971   90.8741   11.4724 N.ar    1  UNL1       -0.2268
      3 C          61.9445   89.7507   10.7227 C.ar    1  UNL1        0.1476
      4 C          61.0592   89.7328    9.5120 C.ar    1  UNL1        0.0397
      5 C          60.5464   88.4286    8.9772 C.ar    1  UNL1        0.0343
      6 C          60.9188   87.1423    9.6531 C.ar    1  UNL1        0.1577
      7 F          60.4060   85.8381    9.1182 F       1  UNL1       -0.2026
      8 C          61.8041   87.1603   10.8638 C.ar    1  UNL1        0.1110
      9 N          62.3169   88.4644   11.3986 N.ar    1  UNL1       -0.2906
     10 C          63.1997   88.7930   12.5660 C.ar    1  UNL1        0.0600
     11 C          65.6306   92.0379   11.7061 C.3     1  UNL1        0.0335
     12 C          65.3089   91.9234   13.1667 C.ar    1  UNL1        0.0102
     13 C          66.1161   92.6867   14.1746 C.ar    1  UNL1        0.1553
     14 F          67.2450   93.5646   13.7217 F       1  UNL1       -0.2029
     15 C          65.7944   92.5723   15.6351 C.ar    1  UNL1        0.1281
     16 N          64.6656   91.6945   16.0879 N.ar    1  UNL1       -0.2399
     17 C          63.8584   90.9311   15.0801 C.ar    1  UNL1        0.1002
     18 C          64.1800   91.0456   13.6195 C.ar    1  UNL1        0.0362
     19 C          63.8033   87.8055   13.5203 C.3     1  UNL1        0.0402
     20 C          64.1100   86.3873   13.9007 C.3     1  UNL1        0.0063
     21 C          64.5421   87.5133   14.7926 C.3     1  UNL1        0.0063
@<TRIPOS>BOND
     1    11    12    1
     2    12    13   ar
     3    13    14    1
     4    13    15   ar
     5    15    16   ar
     6    16    17   ar
     7    17    18   ar
     8    18     1    1
     9     1     2   ar
    10     2     3   ar
    11     3     4   ar
    12     4     5   ar
    13     5     6   ar
    14     6     7    1
    15     6     8   ar
    16     8     9   ar
    17     9    10   ar
    18    10    19    1
    19    19    20    1
    20    20    21    1
    21    18    12   ar
    22    10     1   ar
    23    21    19    1
    24     9     3   ar
@<TRIPOS>MOLECULE
*****
 21 24 0 0 0
SMALL
GASTEIGER

@<TRIPOS>ATOM
      1 C          62.7805   86.0327   12.3599 C.ar    1  UNL1        0.0961
      2 N          62.7976   85.3523   13.6966 N.ar    1  UNL1       -0.2268
      3 C          62.7684   83.8708   13.4631 C.ar    1  UNL1        0.1476
      4 C          62.7694   82.7057   14.4078 C.ar    1  UNL1        0.0397
      5 C          62.7351   81.3053   13.8714 C.ar    1  UNL1        0.0343
      6 C          62.6999   81.0701   12.3903 C.ar    1  UNL1        0.1577
      7 F          62.6657   79.6697   11.8540 F       1  UNL1       -0.2026
      8 C          62.6990   82.2353   11.4457 C.ar    1  UNL1        0.1110
      9 N          62.7333   83.6356   11.9821 N.ar    1  UNL1       -0.2906
     10 C          62.7407   84.9717   11.3003 C.ar    1  UNL1        0.0600
     11 C          64.3307   87.8243   14.2002 C.3     1  UNL1        0.0335
     12 C          63.5748   88.4097   13.0443 C.ar    1  UNL1        0.0102
     13 C          63.5941   89.8910   12.8086 C.ar    1  UNL1        0.1553
     14 F          64.3692   90.7868   13.7288 F       1  UNL1       -0.2029
     15 C          62.8382   90.4764   11.6528 C.ar    1  UNL1        0.1281
     16 N          62.0631   89.5805   10.7327 N.ar    1  UNL1       -0.2399
     17 C          62.0439   88.0993   10.9684 C.ar    1  UNL1        0.1002
     18 C          62.7997   87.5139   12.1242 C.ar    1  UNL1        0.0362
     19 C          62.7132   85.2057    9.8189 C.3     1  UNL1        0.0402
     20 C          63.3172   85.0049    8.4606 C.3     1  UNL1        0.0063
     21 C          62.0617   85.8117    8.6114 C.3     1  UNL1        0.0063
@<TRIPOS>BOND
     1    11    12    1
     2    12    13   ar
     3    13    14    1
     4    13    15   ar
     5    15    16   ar
     6    16    17   ar
     7    17    18   ar
     8    18     1    1
     9     1     2   ar
    10     2     3   ar
    11     3     4   ar
    12     4     5   ar
    13     5     6   ar
    14     6     7    1
    15     6     8   ar
    16     8     9   ar
    17     9    10   ar
    18    10    19    1
    19    19    20    1
    20    20    21    1
    21    18    12   ar
    22    10     1   ar
    23    21    19    1
    24     9     3   ar
@<TRIPOS>MOLECULE
*****
 21 24 0 0 0
SMALL
GASTEIGER

@<TRIPOS>ATOM
      1 C          61.8634   88.0244   10.1875 C.ar    1  UNL1        0.0961
      2 N          62.1179   89.5021   10.1458 N.ar    1  UNL1       -0.2268
      3 C          62.9164   89.8695   11.3612 C.ar    1  UNL1        0.1476
      4 C          63.4567   91.1813   11.8483 C.ar    1  UNL1        0.0397
      5 C          64.2361   91.2424   13.1284 C.ar    1  UNL1        0.0343
      6 C          64.4753   89.9918   13.9214 C.ar    1  UNL1        0.1577
      7 F          65.2547   90.0530   15.2016 F       1  UNL1       -0.2026
      8 C          63.9350   88.6801   13.4343 C.ar    1  UNL1        0.1110
      9 N          63.1556   88.6189   12.1542 N.ar    1  UNL1       -0.2906
     10 C          62.5048   87.4786   11.4288 C.ar    1  UNL1        0.0600
     11 C          63.2858   85.9951    8.4967 C.3     1  UNL1        0.0335
     12 C          61.8127   86.2171    8.3218 C.ar    1  UNL1        0.0102
     13 C          61.0507   85.4244    7.3014 C.ar    1  UNL1        0.1553
     14 F          61.7619   84.4098    6.4560 F       1  UNL1       -0.2029
     15 C          59.5776   85.6464    7.1265 C.ar    1  UNL1        0.1281
     16 N          58.8664   86.6610    7.9719 N.ar    1  UNL1       -0.2399
     17 C          59.6284   87.4537    8.9922 C.ar    1  UNL1        0.1002
     18 C          61.1015   87.2317    9.1672 C.ar    1  UNL1        0.0362
     19 C          62.4968   86.0442   11.8677 C.3     1  UNL1        0.0402
     20 C          62.6998   85.0117   12.9367 C.3     1  UNL1        0.0063
     21 C          62.2799   84.5925   11.5590 C.3     1  UNL1        0.0063
@<TRIPOS>BOND
     1    11    12    1
     2    12    13   ar
     3    13    14    1
     4    13    15   ar
     5    15    16   ar
     6    16    17   ar
     7    17    18   ar
     8    18     1    1
     9     1     2   ar
    10     2     3   ar
    11     3     4   ar
    12     4     5   ar
    13     5     6   ar
    14     6     7    1
    15     6     8   ar
    16     8     9   ar
    17     9    10   ar
    18    10    19    1
    19    19    20    1
    20    20    21    1
    21    18    12   ar
    22    10     1   ar
    23    21    19    1
    24     9     3   ar
@<TRIPOS>MOLECULE
*****
 21 24 0 0 0
SMALL
GASTEIGER

@<TRIPOS>ATOM
      1 C          63.6686   89.9941   12.5109 C.ar    1  UNL1        0.0961
      2 N          64.2145   91.1757   11.7653 N.ar    1  UNL1       -0.2268
      3 C          65.0693   91.9661   12.7112 C.ar    1  UNL1        0.1476
      4 C          65.8615   93.2273   12.5331 C.ar    1  UNL1        0.0397
      5 C          66.6360   93.7955   13.6851 C.ar    1  UNL1        0.0343
      6 C          66.6183   93.1024   15.0153 C.ar    1  UNL1        0.1577
      7 F          67.3929   93.6706   16.1674 F       1  UNL1       -0.2026
      8 C          65.8262   91.8412   15.1934 C.ar    1  UNL1        0.1110
      9 N          65.0517   91.2730   14.0413 N.ar    1  UNL1       -0.2906
     10 C          64.1860   90.0543   13.9176 C.ar    1  UNL1        0.0600
     11 C          61.2341   90.7824   10.9450 C.3     1  UNL1        0.0335
     12 C          61.5468   89.3320   11.1657 C.ar    1  UNL1        0.0102
     13 C          60.6423   88.2757   10.6033 C.ar    1  UNL1        0.1553
     14 F          59.4250   88.6699    9.8204 F       1  UNL1       -0.2029
     15 C          60.9550   86.8254   10.8239 C.ar    1  UNL1        0.1281
     16 N          62.1722   86.4313   11.6069 N.ar    1  UNL1       -0.2399
     17 C          63.0768   87.4876   12.1692 C.ar    1  UNL1        0.1002
     18 C          62.7641   88.9379   11.9486 C.ar    1  UNL1        0.0362
     19 C          63.8897   89.0688   15.0089 C.3     1  UNL1        0.0402
     20 C          63.2957   88.7554   16.3502 C.3     1  UNL1        0.0063
     21 C          63.9705   87.6752   15.5579 C.3     1  UNL1        0.0063
@<TRIPOS>BOND
     1    11    12    1
     2    12    13   ar
     3    13    14    1
     4    13    15   ar
     5    15    16   ar
     6    16    17   ar
     7    17    18   ar
     8    18     1    1
     9     1     2   ar
    10     2     3   ar
    11     3     4   ar
    12     4     5   ar
    13     5     6   ar
    14     6     7    1
    15     6     8   ar
    16     8     9   ar
    17     9    10   ar
    18    10    19    1
    19    19    20    1
    20    20    21    1
    21    18    12   ar
    22    10     1   ar
    23    21    19    1
    24     9     3   ar
@<TRIPOS>MOLECULE
*****
 21 24 0 0 0
SMALL
GASTEIGER

@<TRIPOS>ATOM
      1 C          62.5218   85.8679   12.1413 C.ar    1  UNL1        0.0961
      2 N          62.3737   85.1964   13.4744 N.ar    1  UNL1       -0.2268
      3 C          62.4849   83.7156   13.2625 C.ar    1  UNL1        0.1476
      4 C          62.4167   82.5577   14.2136 C.ar    1  UNL1        0.0397
      5 C          62.5654   81.1561   13.7006 C.ar    1  UNL1        0.0343
      6 C          62.7822   80.9124   12.2365 C.ar    1  UNL1        0.1577
      7 F          62.9309   79.5106   11.7234 F       1  UNL1       -0.2026
      8 C          62.8504   82.0703   11.2854 C.ar    1  UNL1        0.1110
      9 N          62.7018   83.4719   11.7984 N.ar    1  UNL1       -0.2906
     10 C          62.7246   84.8021   11.1055 C.ar    1  UNL1        0.0600
     11 C          60.3851   87.0218   10.3798 C.3     1  UNL1        0.0335
     12 C          61.4070   87.9227   11.0077 C.ar    1  UNL1        0.0102
     13 C          61.3606   89.4005   10.7548 C.ar    1  UNL1        0.1553
     14 F          60.2922   89.9774    9.8740 F       1  UNL1       -0.2029
     15 C          62.3825   90.3013   11.3826 C.ar    1  UNL1        0.1281
     16 N          63.4508   89.7243   12.2633 N.ar    1  UNL1       -0.2399
     17 C          63.4973   88.2465   12.5162 C.ar    1  UNL1        0.1002
     18 C          62.4754   87.3457   11.8884 C.ar    1  UNL1        0.0362
     19 C          62.9165   85.0269    9.6349 C.3     1  UNL1        0.0402
     20 C          63.1137   84.4802    8.2520 C.3     1  UNL1        0.0063
     21 C          63.0518   85.9629    8.4706 C.3     1  UNL1        0.0063
@<TRIPOS>BOND
     1    11    12    1
     2    12    13   ar
     3    13    14    1
     4    13    15   ar
     5    15    16   ar
     6    16    17   ar
     7    17    18   ar
     8    18     1    1
     9     1     2   ar
    10     2     3   ar
    11     3     4   ar
    12     4     5   ar
    13     5     6   ar
    14     6     7    1
    15     6     8   ar
    16     8     9   ar
    17     9    10   ar
    18    10    19    1
    19    19    20    1
    20    20    21    1
    21    18    12   ar
    22    10     1   ar
    23    21    19    1
    24     9     3   ar
@<TRIPOS>MOLECULE
*****
 21 24 0 0 0
SMALL
GASTEIGER

@<TRIPOS>ATOM
      1 C          61.9762   85.8300   10.9558 C.ar    1  UNL1        0.0961
      2 N          61.1054   85.2634    9.8738 N.ar    1  UNL1       -0.2268
      3 C          60.5604   86.4071    9.0707 C.ar    1  UNL1        0.1476
      4 C          59.6470   86.4535    7.8819 C.ar    1  UNL1        0.0397
      5 C          59.2675   87.7733    7.2787 C.ar    1  UNL1        0.0343
      6 C          59.8014   89.0469    7.8644 C.ar    1  UNL1        0.1577
      7 F          59.4219   90.3668    7.2612 F       1  UNL1       -0.2026
      8 C          60.7149   89.0005    9.0532 C.ar    1  UNL1        0.1110
      9 N          61.0944   87.6807    9.6564 N.ar    1  UNL1       -0.2906
     10 C          61.9694   87.3240   10.8214 C.ar    1  UNL1        0.0600
     11 C          63.7740   83.5794   10.1174 C.3     1  UNL1        0.0335
     12 C          63.6216   83.9159   11.5713 C.ar    1  UNL1        0.0102
     13 C          64.3681   83.1271   12.6059 C.ar    1  UNL1        0.1553
     14 F          65.2670   82.0018   12.1867 F       1  UNL1       -0.2029
     15 C          64.2157   83.4636   14.0597 C.ar    1  UNL1        0.1281
     16 N          63.3169   84.5889   14.4788 N.ar    1  UNL1       -0.2399
     17 C          62.5704   85.3777   13.4442 C.ar    1  UNL1        0.1002
     18 C          62.7227   85.0412   11.9904 C.ar    1  UNL1        0.0362
     19 C          62.7079   88.2914   11.6981 C.3     1  UNL1        0.0402
     20 C          63.5759   88.5617   12.8913 C.3     1  UNL1        0.0063
     21 C          63.1190   89.6968   12.0236 C.3     1  UNL1        0.0063
@<TRIPOS>BOND
     1    11    12    1
     2    12    13   ar
     3    13    14    1
     4    13    15   ar
     5    15    16   ar
     6    16    17   ar
     7    17    18   ar
     8    18     1    1
     9     1     2   ar
    10     2     3   ar
    11     3     4   ar
    12     4     5   ar
    13     5     6   ar
    14     6     7    1
    15     6     8   ar
    16     8     9   ar
    17     9    10   ar
    18    10    19    1
    19    19    20    1
    20    20    21    1
    21    18    12   ar
    22    10     1   ar
    23    21    19    1
    24     9     3   ar
@<TRIPOS>MOLECULE
*****
 21 24 0 0 0
SMALL
GASTEIGER

@<TRIPOS>ATOM
      1 C          63.2965   85.3200   12.9465 C.ar    1  UNL1        0.0961
      2 N          64.0790   85.8837   14.0954 N.ar    1  UNL1       -0.2268
      3 C          64.0908   87.3775   13.9597 C.ar    1  UNL1        0.1476
      4 C          64.7073   88.4567   14.7994 C.ar    1  UNL1        0.0397
      5 C          64.5485   89.8955   14.4064 C.ar    1  UNL1        0.0343
      6 C          63.7733   90.2552   13.1737 C.ar    1  UNL1        0.1577
      7 F          63.6145   91.6941   12.7807 F       1  UNL1       -0.2026
      8 C          63.1568   89.1759   12.3340 C.ar    1  UNL1        0.1110
      9 N          63.3155   87.7371   12.7270 N.ar    1  UNL1       -0.2906
     10 C          62.8246   86.4655   12.1008 C.ar    1  UNL1        0.0600
     11 C          64.4564   83.9922   10.5192 C.3     1  UNL1        0.0335
     12 C          63.6122   83.2023   11.4750 C.ar    1  UNL1        0.0102
     13 C          63.3479   81.7484   11.2171 C.ar    1  UNL1        0.1553
     14 F          63.9279   81.0845   10.0034 F       1  UNL1       -0.2029
     15 C          62.5037   80.9585   12.1727 C.ar    1  UNL1        0.1281
     16 N          61.9238   81.6225   13.3863 N.ar    1  UNL1       -0.2399
     17 C          62.1880   83.0763   13.6442 C.ar    1  UNL1        0.1002
     18 C          63.0322   83.8662   12.6886 C.ar    1  UNL1        0.0362
     19 C          62.0056   86.3583   10.8487 C.3     1  UNL1        0.0402
     20 C          60.6687   86.3384   10.1686 C.3     1  UNL1        0.0063
     21 C          61.9238   86.1926    9.3602 C.3     1  UNL1        0.0063
@<TRIPOS>BOND
     1    11    12    1
     2    12    13   ar
     3    13    14    1
     4    13    15   ar
     5    15    16   ar
     6    16    17   ar
     7    17    18   ar
     8    18     1    1
     9     1     2   ar
    10     2     3   ar
    11     3     4   ar
    12     4     5   ar
    13     5     6   ar
    14     6     7    1
    15     6     8   ar
    16     8     9   ar
    17     9    10   ar
    18    10    19    1
    19    19    20    1
    20    20    21    1
    21    18    12   ar
    22    10     1   ar
    23    21    19    1
    24     9     3   ar
