@<TRIPOS>MOLECULE
*****
 24 26 0 0 0
SMALL
GASTEIGER

@<TRIPOS>ATOM
      1 C          65.7660   92.6895   12.1881 C.2     1  UNL1        0.2397
      2 O          66.0859   93.5693   11.0161 O.2     1  UNL1       -0.2734
      3 N          64.6419   91.7004   12.0987 N.am    1  UNL1       -0.2784
      4 C          64.3220   90.8207   13.2708 C.3     1  UNL1        0.0951
      5 C          63.1979   89.8316   13.1814 C.3     1  UNL1        0.0410
      6 C          62.3937   89.7221   11.9199 C.3     1  UNL1        0.0722
      7 C          62.7136   90.6018   10.7479 C.3     1  UNL1        0.0410
      8 C          63.8378   91.5910   10.8373 C.3     1  UNL1        0.0951
      9 C          67.7578   91.9077   13.6616 C.3     1  UNL1        0.0267
     10 C          66.5701   92.7990   13.4496 C.3     1  UNL1        0.1286
     11 N          66.1866   93.7997   14.4991 N.3     1  UNL1       -0.3150
     12 H          66.8369   93.7371   15.2824 H       1  UNL1        0.1192
     13 H          65.2405   93.6037   14.8262 H       1  UNL1        0.1192
     14 N          61.2696   88.7329   11.8305 N.pl3   1  UNL1       -0.3369
     15 H          60.6475   88.6251   12.5859 H       1  UNL1        0.1465
     16 C          61.0934   87.9080   10.5901 C.2     1  UNL1        0.0262
     17 C          59.7988   87.9572    9.8343 C.2     1  UNL1        0.0118
     18 C          59.6226   87.1323    8.5938 C.2     1  UNL1        0.0216
     19 C          60.7412   86.2582    8.1093 C.2     1  UNL1        0.1008
     20 N          60.8586   85.3406    6.9286 N.2     1  UNL1       -0.1482
     21 N          62.2259   84.7243    6.9548 N.2     1  UNL1       -0.1467
     22 C          62.9535   85.2610    8.1516 C.2     1  UNL1        0.1198
     23 C          62.0359   86.2091    8.8652 C.2     1  UNL1        0.0238
     24 C          62.2120   87.0340   10.1055 C.3     1  UNL1        0.0703
@<TRIPOS>BOND
     1    10     9    1
     2    10    11    1
     3    10     1    1
     4     1     2    2
     5     1     3   am
     6     3     4    1
     7     4     5    1
     8     5     6    1
     9     6    14    1
    10    14    16    1
    11    16    17    2
    12    17    18    1
    13    18    19    2
    14    19    20    1
    15    20    21    2
    16    21    22    1
    17    22    23    2
    18    23    24    1
    19     6     7    1
    20     7     8    1
    21     8     3    1
    22    24    16    1
    23    23    19    1
    24    11    12    1
    25    11    13    1
    26    14    15    1
@<TRIPOS>MOLECULE
*****
 24 26 0 0 0
SMALL
GASTEIGER

@<TRIPOS>ATOM
      1 C          63.7840   90.4204   15.6940 C.2     1  UNL1        0.2397
      2 O          63.1625   91.2320   16.7918 O.2     1  UNL1       -0.2734
      3 N          63.7702   88.9223   15.7690 N.am    1  UNL1       -0.2784
      4 C          64.3918   88.1108   14.6711 C.3     1  UNL1        0.0951
      5 C          64.3780   86.6128   14.7460 C.3     1  UNL1        0.0410
      6 C          63.7428   85.9262   15.9187 C.3     1  UNL1        0.0722
      7 C          63.1213   86.7377   17.0165 C.3     1  UNL1        0.0410
      8 C          63.1351   88.2359   16.9416 C.3     1  UNL1        0.0951
      9 C          65.8814   91.4403   14.5492 C.3     1  UNL1        0.0267
     10 C          64.4192   91.1069   14.5213 C.3     1  UNL1        0.1286
     11 N          63.5923   91.4600   13.3207 N.3     1  UNL1       -0.3150
     12 H          64.1812   91.9175   12.6249 H       1  UNL1        0.1192
     13 H          62.8413   92.0917   13.5990 H       1  UNL1        0.1192
     14 N          63.7290   84.4281   15.9936 N.pl3   1  UNL1       -0.3369
     15 H          63.8794   83.9769   16.8556 H       1  UNL1        0.1465
     16 C          63.4862   83.6175   14.7550 C.2     1  UNL1        0.0262
     17 C          62.3883   82.5958   14.7307 C.2     1  UNL1        0.0118
     18 C          62.1454   81.7852   13.4921 C.2     1  UNL1        0.0216
     19 C          63.0005   81.9963   12.2780 C.2     1  UNL1        0.1008
     20 N          62.9974   81.3515   10.9237 N.2     1  UNL1       -0.1482
     21 N          64.0934   81.9746   10.1111 N.2     1  UNL1       -0.1467
     22 C          64.7739   83.0047   10.9631 C.2     1  UNL1        0.1198
     23 C          64.0985   83.0181   12.3024 C.2     1  UNL1        0.0238
     24 C          64.3413   83.8287   13.5409 C.3     1  UNL1        0.0703
@<TRIPOS>BOND
     1    10     9    1
     2    10    11    1
     3    10     1    1
     4     1     2    2
     5     1     3   am
     6     3     4    1
     7     4     5    1
     8     5     6    1
     9     6    14    1
    10    14    16    1
    11    16    17    2
    12    17    18    1
    13    18    19    2
    14    19    20    1
    15    20    21    2
    16    21    22    1
    17    22    23    2
    18    23    24    1
    19     6     7    1
    20     7     8    1
    21     8     3    1
    22    24    16    1
    23    23    19    1
    24    11    12    1
    25    11    13    1
    26    14    15    1
@<TRIPOS>MOLECULE
*****
 24 26 0 0 0
SMALL
GASTEIGER

@<TRIPOS>ATOM
      1 C          65.9106   93.0616   11.8592 C.2     1  UNL1        0.2397
      2 O          66.7562   93.3206   13.0708 O.2     1  UNL1       -0.2734
      3 N          64.8501   92.0015   11.8976 N.am    1  UNL1       -0.2784
      4 C          64.0045   91.7425   10.6859 C.3     1  UNL1        0.0951
      5 C          62.9440   90.6824   10.7243 C.3     1  UNL1        0.0410
      6 C          62.7290   89.8812   11.9741 C.3     1  UNL1        0.0722
      7 C          63.5746   90.1403   13.1856 C.3     1  UNL1        0.0410
      8 C          64.6352   91.2004   13.1473 C.3     1  UNL1        0.0951
      9 C          67.2009   93.4678    9.6411 C.3     1  UNL1        0.0267
     10 C          66.1255   93.8626   10.6094 C.3     1  UNL1        0.1286
     11 N          65.2650   95.0585   10.3278 N.3     1  UNL1       -0.3150
     12 H          65.5475   95.4800    9.4429 H       1  UNL1        0.1192
     13 H          65.3736   95.7400   11.0790 H       1  UNL1        0.1192
     14 N          61.6685   88.8211   12.0125 N.pl3   1  UNL1       -0.3369
     15 H          61.1792   88.6443   12.8482 H       1  UNL1        0.1465
     16 C          61.3536   88.0304   10.7773 C.2     1  UNL1        0.0262
     17 C          60.0205   88.1850   10.1073 C.2     1  UNL1        0.0118
     18 C          59.7056   87.3942    8.8721 C.2     1  UNL1        0.0216
     19 C          60.7238   86.4489    8.3070 C.2     1  UNL1        0.1008
     20 N          60.6981   85.5434    7.1114 N.2     1  UNL1       -0.1482
     21 N          62.0153   84.8292    7.0425 N.2     1  UNL1       -0.1467
     22 C          62.8552   85.2932    8.1955 C.2     1  UNL1        0.1198
     23 C          62.0570   86.2943    8.9770 C.2     1  UNL1        0.0238
     24 C          62.3718   87.0850   10.2121 C.3     1  UNL1        0.0703
@<TRIPOS>BOND
     1    10     9    1
     2    10    11    1
     3    10     1    1
     4     1     2    2
     5     1     3   am
     6     3     4    1
     7     4     5    1
     8     5     6    1
     9     6    14    1
    10    14    16    1
    11    16    17    2
    12    17    18    1
    13    18    19    2
    14    19    20    1
    15    20    21    2
    16    21    22    1
    17    22    23    2
    18    23    24    1
    19     6     7    1
    20     7     8    1
    21     8     3    1
    22    24    16    1
    23    23    19    1
    24    11    12    1
    25    11    13    1
    26    14    15    1
@<TRIPOS>MOLECULE
*****
 24 26 0 0 0
SMALL
GASTEIGER

@<TRIPOS>ATOM
      1 C          66.6821   92.6777   12.5313 C.2     1  UNL1        0.2397
      2 O          67.1627   93.4568   11.3430 O.2     1  UNL1       -0.2734
      3 N          65.3900   91.9194   12.4581 N.am    1  UNL1       -0.2784
      4 C          64.9093   91.1402   13.6464 C.3     1  UNL1        0.0951
      5 C          63.6172   90.3819   13.5732 C.3     1  UNL1        0.0410
      6 C          62.8057   90.4026   12.3118 C.3     1  UNL1        0.0722
      7 C          63.2864   91.1817   11.1236 C.3     1  UNL1        0.0410
      8 C          64.5786   91.9401   11.1968 C.3     1  UNL1        0.0951
      9 C          67.0507   93.4557   14.9825 C.3     1  UNL1        0.0267
     10 C          67.4935   92.6569   13.7927 C.3     1  UNL1        0.1286
     11 N          68.7477   91.8373   13.8642 N.3     1  UNL1       -0.3150
     12 H          69.1685   91.9395   14.7878 H       1  UNL1        0.1192
     13 H          69.4051   92.1589   13.1537 H       1  UNL1        0.1192
     14 N          61.5136   89.6443   12.2387 N.pl3   1  UNL1       -0.3369
     15 H          60.8050   89.8140   12.9008 H       1  UNL1        0.1465
     16 C          61.3011   88.6273   11.1566 C.2     1  UNL1        0.0262
     17 C          62.1640   87.4019   11.0992 C.2     1  UNL1        0.0118
     18 C          61.9515   86.3849   10.0171 C.2     1  UNL1        0.0216
     19 C          60.8760   86.5936    8.9926 C.2     1  UNL1        0.1008
     20 N          60.4355   85.7711    7.8181 N.2     1  UNL1       -0.1482
     21 N          59.3002   86.4883    7.1497 N.2     1  UNL1       -0.1467
     22 C          59.0392   87.7541    7.9111 C.2     1  UNL1        0.1198
     23 C          60.0131   87.8192    9.0500 C.2     1  UNL1        0.0238
     24 C          60.2256   88.8360   10.1321 C.3     1  UNL1        0.0703
@<TRIPOS>BOND
     1    10     9    1
     2    10    11    1
     3    10     1    1
     4     1     2    2
     5     1     3   am
     6     3     4    1
     7     4     5    1
     8     5     6    1
     9     6    14    1
    10    14    16    1
    11    16    17    2
    12    17    18    1
    13    18    19    2
    14    19    20    1
    15    20    21    2
    16    21    22    1
    17    22    23    2
    18    23    24    1
    19     6     7    1
    20     7     8    1
    21     8     3    1
    22    24    16    1
    23    23    19    1
    24    11    12    1
    25    11    13    1
    26    14    15    1
@<TRIPOS>MOLECULE
*****
 24 26 0 0 0
SMALL
GASTEIGER

@<TRIPOS>ATOM
      1 C          60.6202   86.9766    8.4353 C.2     1  UNL1        0.2397
      2 O          61.4358   85.8281    7.9199 O.2     1  UNL1       -0.2734
      3 N          61.0517   87.7075    9.6721 N.am    1  UNL1       -0.2784
      4 C          60.2360   88.8560   10.1875 C.3     1  UNL1        0.0951
      5 C          60.6676   89.5869   11.4242 C.3     1  UNL1        0.0410
      6 C          61.9148   89.1694   12.1456 C.3     1  UNL1        0.0722
      7 C          62.7304   88.0209   11.6301 C.3     1  UNL1        0.0410
      8 C          62.2988   87.2899   10.3933 C.3     1  UNL1        0.0951
      9 C          59.3057   88.7364    7.0478 C.3     1  UNL1        0.0267
     10 C          59.3730   87.3942    7.7141 C.3     1  UNL1        0.1286
     11 N          58.1932   86.4696    7.6591 N.3     1  UNL1       -0.3150
     12 H          57.4392   86.9114    7.1330 H       1  UNL1        0.1192
     13 H          57.8742   86.2687    8.6069 H       1  UNL1        0.1192
     14 N          62.3463   89.9003   13.3823 N.pl3   1  UNL1       -0.3369
     15 H          61.8139   89.8288   14.2074 H       1  UNL1        0.1465
     16 C          63.5891   90.7401   13.3619 C.2     1  UNL1        0.0262
     17 C          64.4549   90.8281   14.5835 C.2     1  UNL1        0.0118
     18 C          65.6977   91.6680   14.5631 C.2     1  UNL1        0.0216
     19 C          66.0744   92.4198   13.3210 C.2     1  UNL1        0.1008
     20 N          67.2312   93.3209   13.0053 N.2     1  UNL1       -0.1482
     21 N          67.0802   93.7898   11.5885 N.2     1  UNL1       -0.1467
     22 C          65.8301   93.1785   11.0286 C.2     1  UNL1        0.1198
     23 C          65.2085   92.3317   12.0994 C.2     1  UNL1        0.0238
     24 C          63.9658   91.4919   12.1198 C.3     1  UNL1        0.0703
@<TRIPOS>BOND
     1    10     9    1
     2    10    11    1
     3    10     1    1
     4     1     2    2
     5     1     3   am
     6     3     4    1
     7     4     5    1
     8     5     6    1
     9     6    14    1
    10    14    16    1
    11    16    17    2
    12    17    18    1
    13    18    19    2
    14    19    20    1
    15    20    21    2
    16    21    22    1
    17    22    23    2
    18    23    24    1
    19     6     7    1
    20     7     8    1
    21     8     3    1
    22    24    16    1
    23    23    19    1
    24    11    12    1
    25    11    13    1
    26    14    15    1
@<TRIPOS>MOLECULE
*****
 24 26 0 0 0
SMALL
GASTEIGER

@<TRIPOS>ATOM
      1 C          65.6004   92.6021   12.7804 C.2     1  UNL1        0.2397
      2 O          65.8123   93.7375   11.8234 O.2     1  UNL1       -0.2734
      3 N          64.6387   91.5028   12.4388 N.am    1  UNL1       -0.2784
      4 C          64.4269   90.3673   13.3959 C.3     1  UNL1        0.0951
      5 C          63.4652   89.2681   13.0543 C.3     1  UNL1        0.0410
      6 C          62.7152   89.3042   11.7557 C.3     1  UNL1        0.0722
      7 C          62.9270   90.4396   10.7987 C.3     1  UNL1        0.0410
      8 C          63.8888   91.5390   11.1403 C.3     1  UNL1        0.0951
      9 C          67.7392   92.0013   14.1276 C.3     1  UNL1        0.0267
     10 C          66.3503   92.5659   14.0790 C.3     1  UNL1        0.1286
     11 N          65.7114   93.0942   15.3290 N.3     1  UNL1       -0.3150
     12 H          66.3582   92.9916   16.1110 H       1  UNL1        0.1192
     13 H          64.8582   92.5699   15.5225 H       1  UNL1        0.1192
     14 N          61.7535   88.2050   11.4142 N.pl3   1  UNL1       -0.3369
     15 H          60.7836   88.3650   11.4683 H       1  UNL1        0.1465
     16 C          62.2696   86.8619   10.9900 C.2     1  UNL1        0.0262
     17 C          62.4038   86.5362    9.5321 C.2     1  UNL1        0.0118
     18 C          62.9199   85.1931    9.1080 C.2     1  UNL1        0.0216
     19 C          63.3017   84.1757   10.1420 C.2     1  UNL1        0.1008
     20 N          63.8363   82.7790   10.0263 N.2     1  UNL1       -0.1482
     21 N          64.0324   82.2415   11.4129 N.2     1  UNL1       -0.1467
     22 C          63.6191   83.3060   12.3855 C.2     1  UNL1        0.1198
     23 C          63.1675   84.5015   11.6000 C.2     1  UNL1        0.0238
     24 C          62.6514   85.8445   12.0241 C.3     1  UNL1        0.0703
@<TRIPOS>BOND
     1    10     9    1
     2    10    11    1
     3    10     1    1
     4     1     2    2
     5     1     3   am
     6     3     4    1
     7     4     5    1
     8     5     6    1
     9     6    14    1
    10    14    16    1
    11    16    17    2
    12    17    18    1
    13    18    19    2
    14    19    20    1
    15    20    21    2
    16    21    22    1
    17    22    23    2
    18    23    24    1
    19     6     7    1
    20     7     8    1
    21     8     3    1
    22    24    16    1
    23    23    19    1
    24    11    12    1
    25    11    13    1
    26    14    15    1
@<TRIPOS>MOLECULE
*****
 24 26 0 0 0
SMALL
GASTEIGER

@<TRIPOS>ATOM
      1 C          60.6888   87.1531    8.6059 C.2     1  UNL1        0.2397
      2 O          61.4926   85.9847    8.1173 O.2     1  UNL1       -0.2734
      3 N          61.1200   87.8992    9.8337 N.am    1  UNL1       -0.2784
      4 C          60.3161   89.0676   10.3222 C.3     1  UNL1        0.0951
      5 C          60.7473   89.8137   11.5500 C.3     1  UNL1        0.0410
      6 C          61.9823   89.3914   12.2893 C.3     1  UNL1        0.0722
      7 C          62.7861   88.2230   11.8007 C.3     1  UNL1        0.0410
      8 C          62.3549   87.4769   10.5729 C.3     1  UNL1        0.0951
      9 C          59.4148   88.9023    7.1682 C.3     1  UNL1        0.0267
     10 C          59.4538   87.5755    7.8667 C.3     1  UNL1        0.1286
     11 N          58.2579   86.6710    7.8260 N.3     1  UNL1       -0.3150
     12 H          57.5153   87.1135    7.2846 H       1  UNL1        0.1192
     13 H          57.9295   86.4986    8.7762 H       1  UNL1        0.1192
     14 N          62.4135   90.1374   13.5171 N.pl3   1  UNL1       -0.3369
     15 H          61.8654   90.0995   14.3340 H       1  UNL1        0.1465
     16 C          63.6799   90.9413   13.5001 C.2     1  UNL1        0.0262
     17 C          64.1858   91.5167   12.2106 C.2     1  UNL1        0.0118
     18 C          65.4522   92.3205   12.1936 C.2     1  UNL1        0.0216
     19 C          66.2125   92.5489   13.4663 C.2     1  UNL1        0.1008
     20 N          67.4818   93.2935   13.7573 N.2     1  UNL1       -0.1482
     21 N          67.7602   93.1783   15.2267 N.2     1  UNL1       -0.1467
     22 C          66.6632   92.3624   15.8438 C.2     1  UNL1        0.1198
     23 C          65.7066   91.9735   14.7558 C.2     1  UNL1        0.0238
     24 C          64.4403   91.1697   14.7727 C.3     1  UNL1        0.0703
@<TRIPOS>BOND
     1    10     9    1
     2    10    11    1
     3    10     1    1
     4     1     2    2
     5     1     3   am
     6     3     4    1
     7     4     5    1
     8     5     6    1
     9     6    14    1
    10    14    16    1
    11    16    17    2
    12    17    18    1
    13    18    19    2
    14    19    20    1
    15    20    21    2
    16    21    22    1
    17    22    23    2
    18    23    24    1
    19     6     7    1
    20     7     8    1
    21     8     3    1
    22    24    16    1
    23    23    19    1
    24    11    12    1
    25    11    13    1
    26    14    15    1
@<TRIPOS>MOLECULE
*****
 24 26 0 0 0
SMALL
GASTEIGER

@<TRIPOS>ATOM
      1 C          65.6236   92.9625   12.2628 C.2     1  UNL1        0.2397
      2 O          66.2279   93.1932   13.6162 O.2     1  UNL1       -0.2734
      3 N          64.6474   91.8422   12.0584 N.am    1  UNL1       -0.2784
      4 C          64.0432   91.6116   10.7049 C.3     1  UNL1        0.0951
      5 C          63.0670   90.4912   10.5005 C.3     1  UNL1        0.0410
      6 C          62.6950   89.6014   11.6494 C.3     1  UNL1        0.0722
      7 C          63.2992   89.8321   13.0028 C.3     1  UNL1        0.0410
      8 C          64.2755   90.9525   13.2072 C.3     1  UNL1        0.0951
      9 C          67.0215   93.4007   10.1172 C.3     1  UNL1        0.0267
     10 C          65.9956   93.8522   11.1139 C.3     1  UNL1        0.1286
     11 N          65.3416   95.1935   10.9617 N.3     1  UNL1       -0.3150
     12 H          65.7108   95.6597   10.1330 H       1  UNL1        0.1192
     13 H          65.5354   95.7619   11.7862 H       1  UNL1        0.1192
     14 N          61.7188   88.4811   11.4449 N.pl3   1  UNL1       -0.3369
     15 H          60.7590   88.6287   11.6069 H       1  UNL1        0.1465
     16 C          62.2050   87.1356   10.9937 C.2     1  UNL1        0.0262
     17 C          62.2658   86.8122    9.5304 C.2     1  UNL1        0.0118
     18 C          62.7521   85.4667    9.0792 C.2     1  UNL1        0.0216
     19 C          63.1775   84.4449   10.0915 C.2     1  UNL1        0.1008
     20 N          63.6969   83.0451    9.9474 N.2     1  UNL1       -0.1482
     21 N          63.9570   82.5035   11.3218 N.2     1  UNL1       -0.1467
     22 C          63.5985   83.5685   12.3153 C.2     1  UNL1        0.1198
     23 C          63.1167   84.7684   11.5550 C.2     1  UNL1        0.0238
     24 C          62.6304   86.1138   12.0061 C.3     1  UNL1        0.0703
@<TRIPOS>BOND
     1    10     9    1
     2    10    11    1
     3    10     1    1
     4     1     2    2
     5     1     3   am
     6     3     4    1
     7     4     5    1
     8     5     6    1
     9     6    14    1
    10    14    16    1
    11    16    17    2
    12    17    18    1
    13    18    19    2
    14    19    20    1
    15    20    21    2
    16    21    22    1
    17    22    23    2
    18    23    24    1
    19     6     7    1
    20     7     8    1
    21     8     3    1
    22    24    16    1
    23    23    19    1
    24    11    12    1
    25    11    13    1
    26    14    15    1
@<TRIPOS>MOLECULE
*****
 24 26 0 0 0
SMALL
GASTEIGER

@<TRIPOS>ATOM
      1 C          60.4225   86.3268    7.9390 C.2     1  UNL1        0.2397
      2 O          59.0348   86.3891    7.3730 O.2     1  UNL1       -0.2734
      3 N          60.8175   87.2430    9.0590 N.am    1  UNL1       -0.2784
      4 C          62.2053   87.1806    9.6250 C.3     1  UNL1        0.0951
      5 C          62.6004   88.0968   10.7450 C.3     1  UNL1        0.0410
      6 C          61.6077   89.0753   11.2992 C.3     1  UNL1        0.0722
      7 C          60.2200   89.1377   10.7332 C.3     1  UNL1        0.0410
      8 C          59.8249   88.2215    9.6131 C.3     1  UNL1        0.0951
      9 C          62.7798   85.2359    7.9976 C.3     1  UNL1        0.0267
     10 C          61.4152   85.3483    7.3849 C.3     1  UNL1        0.1286
     11 N          61.0434   84.4821    6.2181 N.3     1  UNL1       -0.3150
     12 H          61.8317   83.8819    5.9753 H       1  UNL1        0.1192
     13 H          60.8058   85.0707    5.4197 H       1  UNL1        0.1192
     14 N          62.0027   89.9915   12.4193 N.pl3   1  UNL1       -0.3369
     15 H          61.4336   90.0648   13.2193 H       1  UNL1        0.1465
     16 C          63.2649   90.7960   12.3204 C.2     1  UNL1        0.0262
     17 C          63.6175   91.4833   11.0347 C.2     1  UNL1        0.0118
     18 C          64.8797   92.2878   10.9358 C.2     1  UNL1        0.0216
     19 C          65.7892   92.4050   12.1228 C.2     1  UNL1        0.1008
     20 N          67.0906   93.1234   12.3229 N.2     1  UNL1       -0.1482
     21 N          67.5424   92.8802   13.7324 N.2     1  UNL1       -0.1467
     22 C          66.5201   92.0114   14.4034 C.2     1  UNL1        0.1198
     23 C          65.4366   91.7177   13.4086 C.2     1  UNL1        0.0238
     24 C          64.1744   90.9132   13.5074 C.3     1  UNL1        0.0703
@<TRIPOS>BOND
     1    10     9    1
     2    10    11    1
     3    10     1    1
     4     1     2    2
     5     1     3   am
     6     3     4    1
     7     4     5    1
     8     5     6    1
     9     6    14    1
    10    14    16    1
    11    16    17    2
    12    17    18    1
    13    18    19    2
    14    19    20    1
    15    20    21    2
    16    21    22    1
    17    22    23    2
    18    23    24    1
    19     6     7    1
    20     7     8    1
    21     8     3    1
    22    24    16    1
    23    23    19    1
    24    11    12    1
    25    11    13    1
    26    14    15    1
