@<TRIPOS>MOLECULE
*****
 28 31 0 0 0
SMALL
GASTEIGER

@<TRIPOS>ATOM
      1 C          64.6399   90.2886   14.0393 C.ar    1  UNL1        0.0593
      2 C          65.8574   91.0792   14.4168 C.ar    1  UNL1        0.0152
      3 C          66.3646   92.1565   13.5046 C.ar    1  UNL1        0.0036
      4 C          65.6543   92.4431   12.2148 C.ar    1  UNL1        0.0291
      5 C          64.4369   91.6524   11.8373 C.ar    1  UNL1        0.1414
      6 F          63.7266   91.9390   10.5476 F       1  UNL1       -0.2041
      7 C          63.9297   90.5752   12.7496 C.ar    1  UNL1        0.0446
      8 O          63.0030   90.7472   16.8250 O.2     1  UNL1       -0.2258
      9 C          63.3802   89.4220   16.2319 C.2     1  UNL1        0.4088
     10 O          63.0713   88.0751   16.8152 O.3     1  UNL1       -0.4342
     11 C          63.6329   87.0317   15.8953 C.3     1  UNL1        0.2149
     12 C          64.2888   87.7339   14.7435 C.3     1  UNL1        0.1471
     13 N          64.1327   89.2112   14.9515 N.am    1  UNL1       -0.2212
     14 C          63.5525   85.5469   16.0926 C.3     1  UNL1        0.1745
     15 N          63.4783   84.6353   14.9037 N.ar    1  UNL1       -0.2264
     16 C          64.2645   83.3726   14.7104 C.ar    1  UNL1        0.1193
     17 C          63.8770   82.7832   13.3866 C.ar    1  UNL1        0.1441
     18 N          62.8512   83.6818   12.7617 N.ar    1  UNL1       -0.1271
     19 N          62.6048   84.8264   13.6992 N.ar    1  UNL1       -0.0636
     20 C          66.1616   93.5204   11.3026 C.ar    1  UNL1        0.0213
     21 C          66.7685   93.1585    9.9795 C.ar    1  UNL1        0.0029
     22 C          67.2758   94.2359    9.0672 C.ar    1  UNL1        0.0173
     23 CA         67.1761   95.6750    9.4782 C.ar    1  UNL1        0.0885
     24 N          66.5692   96.0369   10.8014 N.ar    1  UNL1       -0.2457
     25 C          66.0620   94.9596   11.7136 C.ar    1  UNL1        0.0986
     26 C          67.6833   96.7523    8.5660 C.3     1  UNL1        0.1829
     27 O          67.1671   96.8500    7.1611 O.3     1  UNL1       -0.3760
     28 H          67.4455   96.0680    6.6592 H       1  UNL1        0.2110
@<TRIPOS>BOND
     1     8     9    2
     2     9    10    1
     3    10    11    1
     4    11    14    1
     5    14    15    1
     6    15    16   ar
     7    16    17   ar
     8    17    18   ar
     9    18    19   ar
    10    11    12    1
    11    12    13    1
    12    13     1    1
    13     1     2   ar
    14     2     3   ar
    15     3     4   ar
    16     4    20    1
    17    20    21   ar
    18    21    22   ar
    19    22    23   ar
    20    23    26    1
    21    26    27    1
    22    23    24   ar
    23    24    25   ar
    24     4     5   ar
    25     5     6    1
    26     5     7   ar
    27    13     9   am
    28     7     1   ar
    29    19    15   ar
    30    25    20   ar
    31    27    28    1
@<TRIPOS>MOLECULE
*****
 28 31 0 0 0
SMALL
GASTEIGER

@<TRIPOS>ATOM
      1 C          64.3363   88.6115   14.2465 C.ar    1  UNL1        0.0593
      2 C          64.7408   87.5527   15.2290 C.ar    1  UNL1        0.0152
      3 C          64.4194   86.1134   14.9551 C.ar    1  UNL1        0.0036
      4 C          63.6936   85.7329   13.6988 C.ar    1  UNL1        0.0291
      5 C          63.2891   86.7917   12.7163 C.ar    1  UNL1        0.1414
      6 F          62.5633   86.4112   11.4600 F       1  UNL1       -0.2041
      7 C          63.6105   88.2310   12.9902 C.ar    1  UNL1        0.0446
      8 O          63.1899   90.3945   16.7278 O.2     1  UNL1       -0.2258
      9 C          64.1307   90.8704   15.6609 C.2     1  UNL1        0.4088
     10 O          64.7097   92.2495   15.5471 O.3     1  UNL1       -0.4342
     11 C          65.5945   92.2823   14.3363 C.3     1  UNL1        0.2149
     12 C          65.5623   90.9235   13.7018 C.3     1  UNL1        0.1471
     13 N          64.6576   90.0509   14.5204 N.am    1  UNL1       -0.2212
     14 C          66.3745   93.4660   13.8461 C.3     1  UNL1        0.1745
     15 N          66.6738   93.6137   12.3837 N.ar    1  UNL1       -0.2264
     16 C          66.1623   94.6998   11.4844 C.ar    1  UNL1        0.1193
     17 C          66.7095   94.4584   10.1087 C.ar    1  UNL1        0.1441
     18 N          67.5591   93.2232   10.1579 N.ar    1  UNL1       -0.1271
     19 N          67.5370   92.7011   11.5639 N.ar    1  UNL1       -0.0636
     20 C          63.3723   84.2935   13.4249 C.ar    1  UNL1        0.0213
     21 C          63.9192   83.6229   12.1997 C.ar    1  UNL1        0.0029
     22 C          63.5979   82.1835   11.9259 C.ar    1  UNL1        0.0173
     23 CA         62.7296   81.4147   12.8773 C.ar    1  UNL1        0.0885
     24 N          62.1827   82.0854   14.1025 N.ar    1  UNL1       -0.2457
     25 C          62.5040   83.5247   14.3763 C.ar    1  UNL1        0.0986
     26 C          62.4083   79.9754   12.6035 C.3     1  UNL1        0.1829
     27 O          62.6831   79.3899   11.2501 O.3     1  UNL1       -0.3760
     28 H          62.1089   79.8124   10.5924 H       1  UNL1        0.2110
@<TRIPOS>BOND
     1     8     9    2
     2     9    10    1
     3    10    11    1
     4    11    14    1
     5    14    15    1
     6    15    16   ar
     7    16    17   ar
     8    17    18   ar
     9    18    19   ar
    10    11    12    1
    11    12    13    1
    12    13     1    1
    13     1     2   ar
    14     2     3   ar
    15     3     4   ar
    16     4    20    1
    17    20    21   ar
    18    21    22   ar
    19    22    23   ar
    20    23    26    1
    21    26    27    1
    22    23    24   ar
    23    24    25   ar
    24     4     5   ar
    25     5     6    1
    26     5     7   ar
    27    13     9   am
    28     7     1   ar
    29    19    15   ar
    30    25    20   ar
    31    27    28    1
@<TRIPOS>MOLECULE
*****
 28 31 0 0 0
SMALL
GASTEIGER

@<TRIPOS>ATOM
      1 C          63.8614   87.8048   13.8559 C.ar    1  UNL1        0.0593
      2 C          64.3911   86.6548   14.6601 C.ar    1  UNL1        0.0152
      3 C          64.2097   85.2493   14.1685 C.ar    1  UNL1        0.0036
      4 C          63.4986   84.9939   12.8727 C.ar    1  UNL1        0.0291
      5 C          62.9689   86.1439   12.0685 C.ar    1  UNL1        0.1414
      6 F          62.2578   85.8885   10.7727 F       1  UNL1       -0.2041
      7 C          63.1503   87.5494   12.5601 C.ar    1  UNL1        0.0446
      8 O          62.2678   89.1867   16.3461 O.2     1  UNL1       -0.2258
      9 C          63.3103   89.8455   15.4921 C.2     1  UNL1        0.4088
     10 O          63.8033   91.2552   15.6328 O.3     1  UNL1       -0.4342
     11 C          64.8405   91.4913   14.5751 C.3     1  UNL1        0.2149
     12 C          64.9884   90.2275   13.7808 C.3     1  UNL1        0.1471
     13 N          64.0427   89.2103   14.3475 N.am    1  UNL1       -0.2212
     14 C          65.5968   92.7671   14.3512 C.3     1  UNL1        0.1745
     15 N          67.0610   92.8368   14.6697 N.ar    1  UNL1       -0.2264
     16 C          67.6596   93.2671   15.9760 C.ar    1  UNL1        0.1193
     17 C          69.1521   93.1847   15.8515 C.ar    1  UNL1        0.1441
     18 N          69.4760   92.7034   14.4682 N.ar    1  UNL1       -0.1271
     19 N          68.1836   92.4883   13.7378 N.ar    1  UNL1       -0.0636
     20 C          63.3172   83.5883   12.3811 C.ar    1  UNL1        0.0213
     21 C          63.8816   83.1797   11.0528 C.ar    1  UNL1        0.0029
     22 C          63.7003   81.7741   10.5612 C.ar    1  UNL1        0.0173
     23 CA         62.9545   80.7773   11.3979 C.ar    1  UNL1        0.0885
     24 N          62.3901   81.1860   12.7263 N.ar    1  UNL1       -0.2457
     25 C          62.5715   82.5915   13.2178 C.ar    1  UNL1        0.0986
     26 C          62.7731   79.3718   10.9064 C.3     1  UNL1        0.1829
     27 O          62.8347   79.0774    9.4369 O.3     1  UNL1       -0.3760
     28 H          62.0866   79.5035    8.9901 H       1  UNL1        0.2110
@<TRIPOS>BOND
     1     8     9    2
     2     9    10    1
     3    10    11    1
     4    11    14    1
     5    14    15    1
     6    15    16   ar
     7    16    17   ar
     8    17    18   ar
     9    18    19   ar
    10    11    12    1
    11    12    13    1
    12    13     1    1
    13     1     2   ar
    14     2     3   ar
    15     3     4   ar
    16     4    20    1
    17    20    21   ar
    18    21    22   ar
    19    22    23   ar
    20    23    26    1
    21    26    27    1
    22    23    24   ar
    23    24    25   ar
    24     4     5   ar
    25     5     6    1
    26     5     7   ar
    27    13     9   am
    28     7     1   ar
    29    19    15   ar
    30    25    20   ar
    31    27    28    1
@<TRIPOS>MOLECULE
*****
 28 31 0 0 0
SMALL
GASTEIGER

@<TRIPOS>ATOM
      1 C          64.2338   88.4503   14.1131 C.ar    1  UNL1        0.0593
      2 C          63.5037   88.0559   12.8635 C.ar    1  UNL1        0.0152
      3 C          63.2050   86.6110   12.5938 C.ar    1  UNL1        0.0036
      4 C          63.6364   85.5603   13.5737 C.ar    1  UNL1        0.0291
      5 C          64.3665   85.9547   14.8232 C.ar    1  UNL1        0.1414
      6 F          64.7979   84.9041   15.8031 F       1  UNL1       -0.2041
      7 C          64.6652   87.3997   15.0929 C.ar    1  UNL1        0.0446
      8 O          63.1527   90.1910   16.6530 O.2     1  UNL1       -0.2258
      9 C          64.0356   90.6954   15.5503 C.2     1  UNL1        0.4088
     10 O          64.5766   92.0885   15.4214 O.3     1  UNL1       -0.4342
     11 C          65.4080   92.1494   14.1743 C.3     1  UNL1        0.2149
     12 C          65.3807   90.7940   13.5325 C.3     1  UNL1        0.1471
     13 N          64.5326   89.8953   14.3828 N.am    1  UNL1       -0.2212
     14 C          66.1383   93.3542   13.6595 C.3     1  UNL1        0.1745
     15 N          66.5811   93.4076   12.2273 N.ar    1  UNL1       -0.2264
     16 C          66.0055   94.2888   11.1587 C.ar    1  UNL1        0.1193
     17 C          66.7460   94.0150    9.8834 C.ar    1  UNL1        0.1441
     18 N          67.7793   92.9644   10.1637 N.ar    1  UNL1       -0.1271
     19 N          67.6775   92.5890   11.6124 N.ar    1  UNL1       -0.0636
     20 C          63.3376   84.1153   13.3039 C.ar    1  UNL1        0.0213
     21 C          62.4675   83.3403   14.2485 C.ar    1  UNL1        0.0029
     22 C          62.1688   81.8953   13.9787 C.ar    1  UNL1        0.0173
     23 CA         62.7402   81.2253   12.7644 C.ar    1  UNL1        0.0885
     24 N          63.6104   82.0004   11.8198 N.ar    1  UNL1       -0.2457
     25 C          63.9091   83.4453   12.0896 C.ar    1  UNL1        0.0986
     26 C          62.4415   79.7804   12.4946 C.3     1  UNL1        0.1829
     27 O          62.6987   79.2026   11.1345 O.3     1  UNL1       -0.3760
     28 H          62.1022   79.6148   10.4901 H       1  UNL1        0.2110
@<TRIPOS>BOND
     1     8     9    2
     2     9    10    1
     3    10    11    1
     4    11    14    1
     5    14    15    1
     6    15    16   ar
     7    16    17   ar
     8    17    18   ar
     9    18    19   ar
    10    11    12    1
    11    12    13    1
    12    13     1    1
    13     1     2   ar
    14     2     3   ar
    15     3     4   ar
    16     4    20    1
    17    20    21   ar
    18    21    22   ar
    19    22    23   ar
    20    23    26    1
    21    26    27    1
    22    23    24   ar
    23    24    25   ar
    24     4     5   ar
    25     5     6    1
    26     5     7   ar
    27    13     9   am
    28     7     1   ar
    29    19    15   ar
    30    25    20   ar
    31    27    28    1
@<TRIPOS>MOLECULE
*****
 28 31 0 0 0
SMALL
GASTEIGER

@<TRIPOS>ATOM
      1 C          62.3253   89.6086   10.8677 C.ar    1  UNL1        0.0593
      2 C          62.8979   90.9417   10.4871 C.ar    1  UNL1        0.0152
      3 C          63.9512   91.5779   11.3448 C.ar    1  UNL1        0.0036
      4 C          64.4320   90.8810   12.5830 C.ar    1  UNL1        0.0291
      5 C          63.8593   89.5479   12.9636 C.ar    1  UNL1        0.1414
      6 F          64.3401   88.8511   14.2019 F       1  UNL1       -0.2041
      7 C          62.8060   88.9117   12.1059 C.ar    1  UNL1        0.0446
      8 O          60.8819   86.7339   11.4181 O.2     1  UNL1       -0.2258
      9 C          60.6085   87.6510   10.2630 C.2     1  UNL1        0.4088
     10 O          59.6236   87.4077    9.1581 O.3     1  UNL1       -0.4342
     11 C          59.6783   88.5787    8.2222 C.3     1  UNL1        0.2149
     12 C          60.6970   89.5456    8.7487 C.3     1  UNL1        0.1471
     13 N          61.2719   88.9723   10.0100 N.am    1  UNL1       -0.2212
     14 C          58.8583   88.7522    6.9782 C.3     1  UNL1        0.1745
     15 N          59.0798   89.9435    6.0940 N.ar    1  UNL1       -0.2264
     16 C          58.0258   90.9032    5.6273 C.ar    1  UNL1        0.1193
     17 C          58.6888   91.9370    4.7661 C.ar    1  UNL1        0.1441
     18 N          60.1526   91.6162    4.7006 N.ar    1  UNL1       -0.1271
     19 N          60.3943   90.3842    5.5213 N.ar    1  UNL1       -0.0636
     20 C          65.4854   91.5173   13.4407 C.ar    1  UNL1        0.0213
     21 C          65.2763   91.6357   14.9213 C.ar    1  UNL1        0.0029
     22 C          66.3297   92.2720   15.7790 C.ar    1  UNL1        0.0173
     23 CA         67.5921   92.7899   15.1560 C.ar    1  UNL1        0.0885
     24 N          67.8011   92.6715   13.6753 N.ar    1  UNL1       -0.2457
     25 C          66.7478   92.0352   12.8177 C.ar    1  UNL1        0.0986
     26 C          68.6455   93.4262   16.0136 C.3     1  UNL1        0.1829
     27 O          68.7422   94.9207   16.0977 O.3     1  UNL1       -0.3760
     28 H          68.9996   95.2772   15.2331 H       1  UNL1        0.2110
@<TRIPOS>BOND
     1     8     9    2
     2     9    10    1
     3    10    11    1
     4    11    14    1
     5    14    15    1
     6    15    16   ar
     7    16    17   ar
     8    17    18   ar
     9    18    19   ar
    10    11    12    1
    11    12    13    1
    12    13     1    1
    13     1     2   ar
    14     2     3   ar
    15     3     4   ar
    16     4    20    1
    17    20    21   ar
    18    21    22   ar
    19    22    23   ar
    20    23    26    1
    21    26    27    1
    22    23    24   ar
    23    24    25   ar
    24     4     5   ar
    25     5     6    1
    26     5     7   ar
    27    13     9   am
    28     7     1   ar
    29    19    15   ar
    30    25    20   ar
    31    27    28    1
@<TRIPOS>MOLECULE
*****
 28 31 0 0 0
SMALL
GASTEIGER

@<TRIPOS>ATOM
      1 C          63.6483   87.6696   13.2232 C.ar    1  UNL1        0.0593
      2 C          62.8775   87.2836   11.9957 C.ar    1  UNL1        0.0152
      3 C          62.7141   85.8364   11.6371 C.ar    1  UNL1        0.0036
      4 C          63.3213   84.7751   12.5059 C.ar    1  UNL1        0.0291
      5 C          64.0921   85.1611   13.7335 C.ar    1  UNL1        0.1414
      6 F          64.6994   84.0999   14.6023 F       1  UNL1       -0.2041
      7 C          64.2556   86.6084   14.0921 C.ar    1  UNL1        0.0446
      8 O          62.0108   90.1683   11.9099 O.2     1  UNL1       -0.2258
      9 C          63.0592   90.2654   12.9783 C.2     1  UNL1        0.4088
     10 O          63.5389   91.5281   13.6305 O.3     1  UNL1       -0.4342
     11 C          64.5882   91.1600   14.6374 C.3     1  UNL1        0.2149
     12 C          64.7568   89.6698   14.6073 C.3     1  UNL1        0.1471
     13 N          63.8119   89.1169   13.5819 N.am    1  UNL1       -0.2212
     14 C          65.3372   92.1145   15.5193 C.3     1  UNL1        0.1745
     15 N          66.7815   92.4129   15.2454 N.ar    1  UNL1       -0.2264
     16 C          67.7181   93.1486   16.1572 C.ar    1  UNL1        0.1193
     17 C          69.0582   93.2184   15.4868 C.ar    1  UNL1        0.1441
     18 N          68.9497   92.5257   14.1607 N.ar    1  UNL1       -0.1271
     19 N          67.5427   92.0279   14.0115 N.ar    1  UNL1       -0.0636
     20 C          63.1578   83.3278   12.1472 C.ar    1  UNL1        0.0213
     21 C          62.5375   82.3775   13.1280 C.ar    1  UNL1        0.0029
     22 C          62.3739   80.9301   12.7693 C.ar    1  UNL1        0.0173
     23 CA         62.8308   80.4332   11.4298 C.ar    1  UNL1        0.0885
     24 N          63.4512   81.3836   10.4490 N.ar    1  UNL1       -0.2457
     25 C          63.6147   82.8309   10.8077 C.ar    1  UNL1        0.0986
     26 C          62.6673   78.9860   11.0711 C.3     1  UNL1        0.1829
     27 O          62.8237   78.5442    9.6462 O.3     1  UNL1       -0.3760
     28 H          62.1118   78.9260    9.1093 H       1  UNL1        0.2110
@<TRIPOS>BOND
     1     8     9    2
     2     9    10    1
     3    10    11    1
     4    11    14    1
     5    14    15    1
     6    15    16   ar
     7    16    17   ar
     8    17    18   ar
     9    18    19   ar
    10    11    12    1
    11    12    13    1
    12    13     1    1
    13     1     2   ar
    14     2     3   ar
    15     3     4   ar
    16     4    20    1
    17    20    21   ar
    18    21    22   ar
    19    22    23   ar
    20    23    26    1
    21    26    27    1
    22    23    24   ar
    23    24    25   ar
    24     4     5   ar
    25     5     6    1
    26     5     7   ar
    27    13     9   am
    28     7     1   ar
    29    19    15   ar
    30    25    20   ar
    31    27    28    1
@<TRIPOS>MOLECULE
*****
 28 31 0 0 0
SMALL
GASTEIGER

@<TRIPOS>ATOM
      1 C          62.5448   89.7628   11.2835 C.ar    1  UNL1        0.0593
      2 C          62.9814   89.1335   12.5732 C.ar    1  UNL1        0.0152
      3 C          64.0707   89.7678   13.3862 C.ar    1  UNL1        0.0036
      4 C          64.7234   91.0315   12.9095 C.ar    1  UNL1        0.0291
      5 C          64.2868   91.6607   11.6198 C.ar    1  UNL1        0.1414
      6 F          64.9394   92.9244   11.1431 F       1  UNL1       -0.2041
      7 C          63.1974   91.0264   10.8068 C.ar    1  UNL1        0.0446
      8 O          59.6126   91.0549   10.6650 O.2     1  UNL1       -0.2258
      9 C          60.1077   89.7223   10.1862 C.2     1  UNL1        0.4088
     10 O          59.3419   88.7498    9.3391 O.3     1  UNL1       -0.4342
     11 C          60.2164   87.5547    9.0998 C.3     1  UNL1        0.2149
     12 C          61.5226   87.7887    9.7991 C.3     1  UNL1        0.1471
     13 N          61.4554   89.1284   10.4705 N.am    1  UNL1       -0.2212
     14 C          59.8491   86.3391    8.3014 C.3     1  UNL1        0.1745
     15 N          60.9058   85.5935    7.5414 N.ar    1  UNL1       -0.2264
     16 C          62.3334   85.4120    7.9642 C.ar    1  UNL1        0.1193
     17 C          63.0302   84.6049    6.9092 C.ar    1  UNL1        0.1441
     18 N          62.0332   84.2875    5.8344 N.ar    1  UNL1       -0.1271
     19 N          60.7202   84.8985    6.2251 N.ar    1  UNL1       -0.0636
     20 C          65.8128   91.6658   13.7225 C.ar    1  UNL1        0.0213
     21 C          65.6196   91.8855   15.1937 C.ar    1  UNL1        0.0029
     22 C          66.7090   92.5198   16.0067 C.ar    1  UNL1        0.0173
     23 CA         67.9915   92.9345   15.3485 C.ar    1  UNL1        0.0885
     24 N          68.1846   92.7147   13.8772 N.ar    1  UNL1       -0.2457
     25 C          67.0953   92.0804   13.0643 C.ar    1  UNL1        0.0986
     26 C          69.0808   93.5688   16.1614 C.3     1  UNL1        0.1829
     27 O          69.1159   95.0581   16.3360 O.3     1  UNL1       -0.3760
     28 H          69.2859   95.4802   15.4794 H       1  UNL1        0.2110
@<TRIPOS>BOND
     1     8     9    2
     2     9    10    1
     3    10    11    1
     4    11    14    1
     5    14    15    1
     6    15    16   ar
     7    16    17   ar
     8    17    18   ar
     9    18    19   ar
    10    11    12    1
    11    12    13    1
    12    13     1    1
    13     1     2   ar
    14     2     3   ar
    15     3     4   ar
    16     4    20    1
    17    20    21   ar
    18    21    22   ar
    19    22    23   ar
    20    23    26    1
    21    26    27    1
    22    23    24   ar
    23    24    25   ar
    24     4     5   ar
    25     5     6    1
    26     5     7   ar
    27    13     9   am
    28     7     1   ar
    29    19    15   ar
    30    25    20   ar
    31    27    28    1
@<TRIPOS>MOLECULE
*****
 28 31 0 0 0
SMALL
GASTEIGER

@<TRIPOS>ATOM
      1 C          63.2232   89.2744   13.0485 C.ar    1  UNL1        0.0593
      2 C          63.4133   87.7871   13.0912 C.ar    1  UNL1        0.0152
      3 C          63.0349   86.9484   11.9066 C.ar    1  UNL1        0.0036
      4 C          62.4663   87.5968   10.6794 C.ar    1  UNL1        0.0291
      5 C          62.2761   89.0841   10.6367 C.ar    1  UNL1        0.1414
      6 F          61.7075   89.7326    9.4094 F       1  UNL1       -0.2041
      7 C          62.6546   89.9229   11.8212 C.ar    1  UNL1        0.0446
      8 O          61.7037   89.3121   15.9363 O.2     1  UNL1       -0.2258
      9 C          62.9032   90.1306   15.5604 C.2     1  UNL1        0.4088
     10 O          63.6149   91.1101   16.4459 O.3     1  UNL1       -0.4342
     11 C          64.7532   91.6981   15.6658 C.3     1  UNL1        0.2149
     12 C          64.7449   91.0820   14.2982 C.3     1  UNL1        0.1471
     13 N          63.6016   90.1132   14.2330 N.am    1  UNL1       -0.2212
     14 C          65.7284   92.7224   16.1655 C.3     1  UNL1        0.1745
     15 N          67.1563   92.6846   15.7076 N.ar    1  UNL1       -0.2264
     16 C          68.3516   92.4053   16.5698 C.ar    1  UNL1        0.1193
     17 C          69.5736   92.4676   15.7022 C.ar    1  UNL1        0.1441
     18 N          69.1336   92.7854   14.3038 N.ar    1  UNL1       -0.1271
     19 N          67.6396   92.9196   14.3071 N.ar    1  UNL1       -0.0636
     20 C          62.0878   86.7580    9.4948 C.ar    1  UNL1        0.0213
     21 C          63.0990   85.8433    8.8697 C.ar    1  UNL1        0.0029
     22 C          62.7206   85.0045    7.6851 C.ar    1  UNL1        0.0173
     23 CA         61.3309   85.0803    7.1257 C.ar    1  UNL1        0.0885
     24 N          60.3196   85.9950    7.7509 N.ar    1  UNL1       -0.2457
     25 C          60.6981   86.8338    8.9354 C.ar    1  UNL1        0.0986
     26 C          60.9524   84.2415    5.9412 C.3     1  UNL1        0.1829
     27 O          61.8907   84.1208    4.7772 O.3     1  UNL1       -0.3760
     28 H          61.9802   84.9837    4.3431 H       1  UNL1        0.2110
@<TRIPOS>BOND
     1     8     9    2
     2     9    10    1
     3    10    11    1
     4    11    14    1
     5    14    15    1
     6    15    16   ar
     7    16    17   ar
     8    17    18   ar
     9    18    19   ar
    10    11    12    1
    11    12    13    1
    12    13     1    1
    13     1     2   ar
    14     2     3   ar
    15     3     4   ar
    16     4    20    1
    17    20    21   ar
    18    21    22   ar
    19    22    23   ar
    20    23    26    1
    21    26    27    1
    22    23    24   ar
    23    24    25   ar
    24     4     5   ar
    25     5     6    1
    26     5     7   ar
    27    13     9   am
    28     7     1   ar
    29    19    15   ar
    30    25    20   ar
    31    27    28    1
