@<TRIPOS>MOLECULE
*****
 44 49 0 0 0
SMALL
GASTEIGER

@<TRIPOS>ATOM
      1 C          59.6800   90.1119    6.2588 C.ar    1  UNL1        0.1348
      2 C          59.1329   88.7174    6.3362 C.ar    1  UNL1        0.0346
      3 C          59.5676   87.8015    7.4417 C.ar    1  UNL1        0.0065
      4 C          60.5493   88.2800    8.4698 C.ar    1  UNL1        0.0432
      5 C          61.0964   89.6746    8.3924 C.ar    1  UNL1        0.1256
      6 N          60.6617   90.5905    7.2869 N.ar    1  UNL1       -0.2222
      7 C          60.9840   87.3641    9.5753 C.ar    1  UNL1        0.0850
      8 C          60.5803   87.4678   11.0162 C.ar    1  UNL1        0.0991
      9 N          61.2455   86.3515   11.7655 N.ar    1  UNL1       -0.2265
     10 C          62.0603   85.5578   10.7876 C.ar    1  UNL1        0.1474
     11 C          62.9285   84.3462   10.9548 C.ar    1  UNL1        0.0332
     12 C          63.6351   83.7603    9.7684 C.ar    1  UNL1       -0.0174
     13 C          64.5034   82.5485    9.9357 C.3     1  UNL1        0.0312
     14 C          63.4735   84.3861    8.4148 C.ar    1  UNL1        0.0149
     15 C          62.6053   85.5978    8.2476 C.ar    1  UNL1        0.0811
     16 N          61.8987   86.1836    9.4340 N.ar    1  UNL1       -0.2888
     17 C          59.6711   88.5056   11.6046 C.ar    1  UNL1        0.0222
     18 C          59.7556   89.9285   11.1374 C.ar    1  UNL1        0.0222
     19 C          58.8464   90.9663   11.7258 C.ar    1  UNL1        0.0989
     20 N          57.8526   90.5812   12.7813 N.ar    1  UNL1       -0.2423
     21 C          57.7681   89.1584   13.2485 C.ar    1  UNL1        0.0989
     22 C          58.6773   88.1206   12.6601 C.ar    1  UNL1        0.0222
     23 C          60.2703   91.6879    4.2794 C.2     1  UNL1        0.2414
     24 O          61.7301   91.4320    4.5111 O.2     1  UNL1       -0.2733
     25 N          59.2453   91.0278    5.1533 N.am    1  UNL1       -0.2682
     26 H          58.2872   91.1957    5.0012 H       1  UNL1        0.1563
     27 C          59.8355   92.6038    3.1739 C.3     1  UNL1        0.1319
     28 C          59.9115   94.0905    3.3582 C.3     1  UNL1        0.0270
     29 C          59.6095   92.7340    0.5891 C.3     1  UNL1        0.0862
     30 N          59.3248   92.0330    1.8843 N.3     1  UNL1       -0.2902
     31 H          59.7149   91.0941    1.8028 H       1  UNL1        0.1237
     32 C          62.0782   90.1532    9.4206 C.1     1  UNL1       -0.0404
     33 C          63.0600   90.6318   10.4488 C.1     1  UNL1       -0.0583
     34 C          64.0417   91.1104   11.4769 C.ar    1  UNL1        0.0420
     35 C          65.0674   92.1421   11.1114 C.ar    1  UNL1        0.0083
     36 C          66.0492   92.6207   12.1395 C.ar    1  UNL1        0.0022
     37 C          66.0052   92.0676   13.5332 C.ar    1  UNL1        0.0210
     38 C          64.9795   91.0359   13.8987 C.ar    1  UNL1        0.0022
     39 C          63.9977   90.5573   12.8705 C.ar    1  UNL1        0.0083
     40 C          66.9869   92.5462   14.5613 C.ar    1  UNL1        0.1231
     41 C          67.9412   91.6868   15.3365 C.ar    1  UNL1        0.0658
     42 C          68.7308   92.5777   16.2490 C.ar    1  UNL1        0.2138
     43 O          68.2647   93.9876   16.0379 O.2     1  UNL1       -0.3502
     44 N          67.1868   93.9682   14.9948 N.ar    1  UNL1       -0.0768
@<TRIPOS>BOND
     1    29    30    1
     2    30    27    1
     3    27    28    1
     4    27    23    1
     5    23    24    2
     6    23    25   am
     7    25     1    1
     8     1     2   ar
     9     2     3   ar
    10     3     4   ar
    11     4     7    1
    12     7     8   ar
    13     8    17    1
    14    17    18   ar
    15    18    19   ar
    16    19    20   ar
    17    20    21   ar
    18    21    22   ar
    19     8     9   ar
    20     9    10   ar
    21    10    11   ar
    22    11    12   ar
    23    12    13    1
    24    12    14   ar
    25    14    15   ar
    26    15    16   ar
    27     4     5   ar
    28     5    32    1
    29    32    33    3
    30    33    34    1
    31    34    35   ar
    32    35    36   ar
    33    36    37   ar
    34    37    40    1
    35    40    41   ar
    36    41    42   ar
    37    42    43   ar
    38    43    44   ar
    39    37    38   ar
    40    38    39   ar
    41     5     6   ar
    42     6     1   ar
    43    16     7   ar
    44    39    34   ar
    45    22    17   ar
    46    16    10   ar
    47    44    40   ar
    48    30    31    1
    49    25    26    1
