@<TRIPOS>MOLECULE
*****
 31 34 0 0 0
SMALL
GASTEIGER

@<TRIPOS>ATOM
      1 C          61.8019   90.3112   12.0435 C.2     1  UNL1        0.2459
      2 O          61.3863   89.8614   13.4127 O.2     1  UNL1       -0.2730
      3 N          63.1309   90.9776   11.8442 N.am    1  UNL1       -0.2781
      4 C          63.5466   91.4274   10.4749 C.3     1  UNL1        0.0935
      5 C          64.8755   92.0938   10.2757 C.3     1  UNL1        0.0219
      6 C          65.7889   92.3104   11.4457 C.3     1  UNL1        0.0078
      7 C          65.3732   91.8606   12.8149 C.3     1  UNL1        0.0419
      8 C          64.0443   91.1942   13.0142 C.3     1  UNL1        0.0953
      9 C          66.2866   92.0772   13.9849 C.ar    1  UNL1       -0.0209
     10 C          67.7669   91.8963   13.8243 C.ar    1  UNL1       -0.0042
     11 C          68.6802   92.1129   14.9943 C.ar    1  UNL1       -0.0003
     12 C          68.1132   92.5104   16.3249 C.ar    1  UNL1       -0.0000
     13 C          66.6329   92.6913   16.4855 C.ar    1  UNL1       -0.0003
     14 C          65.7196   92.4747   15.3155 C.ar    1  UNL1       -0.0042
     15 C          60.8886   90.0946   10.8735 C.3     1  UNL1        0.1773
     16 C          58.9326   88.6405   11.7732 C.3     1  UNL1        0.1126
     17 N          60.0506   88.8530   10.7960 N.pl3   1  UNL1       -0.2980
     18 C          60.3305   87.8238    9.7412 C.ar    1  UNL1        0.0491
     19 C          59.2798   87.4861    8.7253 C.ar    1  UNL1        0.0154
     20 C          59.5597   86.4570    7.6705 C.ar    1  UNL1        0.0135
     21 C          60.8902   85.7655    7.6317 C.ar    1  UNL1        0.0683
     22 CL         61.1701   84.7364    6.5769 Cl      1  UNL1       -0.0814
     23 C          61.9409   86.1032    8.6476 C.ar    1  UNL1        0.0694
     24 CL         63.2715   85.4118    8.6087 Cl      1  UNL1       -0.0813
     25 C          61.6610   87.1324    9.7023 C.ar    1  UNL1        0.0268
     26 C          63.6286   90.7444   14.3835 C.3     1  UNL1        0.0924
     27 N          63.7857   89.3064   14.7804 N.3     1  UNL1       -0.2713
     28 C          63.4331   88.7161   16.1134 C.3     1  UNL1        0.0722
     29 C          63.7525   87.2511   16.0708 C.3     1  UNL1        0.0188
     30 C          64.3026   86.9360   14.7114 C.3     1  UNL1        0.0188
     31 C          64.3231   88.2063   13.9139 C.3     1  UNL1        0.0722
@<TRIPOS>BOND
     1    16    17    1
     2    17    15    1
     3    15     1    1
     4     1     2    2
     5     1     3   am
     6     3     4    1
     7     4     5    1
     8     5     6    1
     9     6     7    1
    10     7     9    1
    11     9    10   ar
    12    10    11   ar
    13    11    12   ar
    14    12    13   ar
    15    13    14   ar
    16     7     8    1
    17     8    26    1
    18    26    27    1
    19    27    28    1
    20    28    29    1
    21    29    30    1
    22    30    31    1
    23    17    18    1
    24    18    19   ar
    25    19    20   ar
    26    20    21   ar
    27    21    22    1
    28    21    23   ar
    29    23    24    1
    30    23    25   ar
    31     8     3    1
    32    31    27    1
    33    25    18   ar
    34    14     9   ar
@<TRIPOS>MOLECULE
*****
 31 34 0 0 0
SMALL
GASTEIGER

@<TRIPOS>ATOM
      1 C          64.2726   89.8499   13.4212 C.2     1  UNL1        0.2459
      2 O          65.0610   89.5358   14.6580 O.2     1  UNL1       -0.2730
      3 N          63.5778   88.7496   12.6750 N.am    1  UNL1       -0.2781
      4 C          62.7894   89.0637   11.4382 C.3     1  UNL1        0.0935
      5 C          62.0947   87.9635   10.6921 C.3     1  UNL1        0.0219
      6 C          62.1883   86.5491   11.1828 C.3     1  UNL1        0.0078
      7 C          62.9767   86.2350   12.4197 C.3     1  UNL1        0.0419
      8 C          63.6715   87.3352   13.1658 C.3     1  UNL1        0.0953
      9 C          63.0703   84.8206   12.9104 C.ar    1  UNL1       -0.0209
     10 C          62.1200   84.3266   13.9604 C.ar    1  UNL1       -0.0042
     11 C          62.2136   82.9122   14.4511 C.ar    1  UNL1       -0.0003
     12 C          63.2576   81.9919   13.8918 C.ar    1  UNL1       -0.0000
     13 C          64.2080   82.4859   12.8417 C.ar    1  UNL1       -0.0003
     14 C          64.1143   83.9002   12.3510 C.ar    1  UNL1       -0.0042
     15 C          64.1790   91.2643   12.9305 C.3     1  UNL1        0.1773
     16 C          65.7916   92.4697   14.5726 C.3     1  UNL1        0.1126
     17 N          65.3098   92.2191   13.1743 N.pl3   1  UNL1       -0.2980
     18 C          65.9588   92.9235   12.0199 C.ar    1  UNL1        0.0491
     19 C          65.7246   94.3899   11.8084 C.ar    1  UNL1        0.0154
     20 C          66.3736   95.0942   10.6540 C.ar    1  UNL1        0.0135
     21 C          67.2569   94.3321    9.7111 C.ar    1  UNL1        0.0683
     22 CL         67.9059   95.0365    8.5567 Cl      1  UNL1       -0.0814
     23 C          67.4911   92.8657    9.9226 C.ar    1  UNL1        0.0694
     24 CL         68.3744   92.1036    8.9797 Cl      1  UNL1       -0.0813
     25 C          66.8421   92.1614   11.0770 C.ar    1  UNL1        0.0268
     26 C          64.4599   87.0212   14.4026 C.3     1  UNL1        0.0924
     27 N          63.7758   86.9763   15.7368 N.3     1  UNL1       -0.2713
     28 C          63.5131   85.7448   16.5519 C.3     1  UNL1        0.0722
     29 C          62.8093   86.1624   17.8090 C.3     1  UNL1        0.0188
     30 C          62.6370   87.6519   17.7709 C.3     1  UNL1        0.0188
     31 C          63.2344   88.1549   16.4902 C.3     1  UNL1        0.0722
@<TRIPOS>BOND
     1    16    17    1
     2    17    15    1
     3    15     1    1
     4     1     2    2
     5     1     3   am
     6     3     4    1
     7     4     5    1
     8     5     6    1
     9     6     7    1
    10     7     9    1
    11     9    10   ar
    12    10    11   ar
    13    11    12   ar
    14    12    13   ar
    15    13    14   ar
    16     7     8    1
    17     8    26    1
    18    26    27    1
    19    27    28    1
    20    28    29    1
    21    29    30    1
    22    30    31    1
    23    17    18    1
    24    18    19   ar
    25    19    20   ar
    26    20    21   ar
    27    21    22    1
    28    21    23   ar
    29    23    24    1
    30    23    25   ar
    31     8     3    1
    32    31    27    1
    33    25    18   ar
    34    14     9   ar
@<TRIPOS>MOLECULE
*****
 31 34 0 0 0
SMALL
GASTEIGER

@<TRIPOS>ATOM
      1 C          63.8948   89.5588   13.2116 C.2     1  UNL1        0.2459
      2 O          64.7407   89.3199   14.4270 O.2     1  UNL1       -0.2730
      3 N          63.2630   88.4004   12.4980 N.am    1  UNL1       -0.2781
      4 C          62.4171   88.6392   11.2826 C.3     1  UNL1        0.0935
      5 C          61.7854   87.4808   10.5691 C.3     1  UNL1        0.0219
      6 C          61.9996   86.0836   11.0711 C.3     1  UNL1        0.0078
      7 C          62.8455   85.8448   12.2865 C.3     1  UNL1        0.0419
      8 C          63.4772   87.0032   13.0000 C.3     1  UNL1        0.0953
      9 C          63.0597   84.4476   12.7885 C.ar    1  UNL1       -0.0209
     10 C          62.1864   83.9000   13.8781 C.ar    1  UNL1       -0.0042
     11 C          62.4006   82.5028   14.3801 C.ar    1  UNL1       -0.0003
     12 C          63.4881   81.6532   13.7925 C.ar    1  UNL1       -0.0000
     13 C          64.3615   82.2008   12.7029 C.ar    1  UNL1       -0.0003
     14 C          64.1473   83.5980   12.2009 C.ar    1  UNL1       -0.0042
     15 C          63.6805   90.9559   12.7096 C.3     1  UNL1        0.1773
     16 C          64.9706   92.4562   11.0259 C.3     1  UNL1        0.1126
     17 N          64.8590   91.8240   12.3815 N.pl3   1  UNL1       -0.2980
     18 C          65.9260   92.0598   13.4092 C.ar    1  UNL1        0.0491
     19 C          65.5473   92.4401   14.8098 C.ar    1  UNL1        0.0154
     20 C          66.6142   92.6759   15.8375 C.ar    1  UNL1        0.0135
     21 C          68.0599   92.5314   15.4644 C.ar    1  UNL1        0.0683
     22 CL         69.1269   92.7672   16.4921 Cl      1  UNL1       -0.0814
     23 C          68.4386   92.1510   14.0637 C.ar    1  UNL1        0.0694
     24 CL         69.8843   92.0065   13.6907 Cl      1  UNL1       -0.0813
     25 C          67.3717   91.9152   13.0361 C.ar    1  UNL1        0.0268
     26 C          64.3232   86.7644   14.2155 C.3     1  UNL1        0.0924
     27 N          63.6954   86.7638   15.5778 N.3     1  UNL1       -0.2713
     28 C          63.2922   87.9764   16.3634 C.3     1  UNL1        0.0722
     29 C          62.7082   87.5125   17.6649 C.3     1  UNL1        0.0188
     30 C          62.7505   86.0132   17.6837 C.3     1  UNL1        0.0188
     31 C          63.3606   85.5505   16.3938 C.3     1  UNL1        0.0722
@<TRIPOS>BOND
     1    16    17    1
     2    17    15    1
     3    15     1    1
     4     1     2    2
     5     1     3   am
     6     3     4    1
     7     4     5    1
     8     5     6    1
     9     6     7    1
    10     7     9    1
    11     9    10   ar
    12    10    11   ar
    13    11    12   ar
    14    12    13   ar
    15    13    14   ar
    16     7     8    1
    17     8    26    1
    18    26    27    1
    19    27    28    1
    20    28    29    1
    21    29    30    1
    22    30    31    1
    23    17    18    1
    24    18    19   ar
    25    19    20   ar
    26    20    21   ar
    27    21    22    1
    28    21    23   ar
    29    23    24    1
    30    23    25   ar
    31     8     3    1
    32    31    27    1
    33    25    18   ar
    34    14     9   ar
@<TRIPOS>MOLECULE
*****
 31 34 0 0 0
SMALL
GASTEIGER

@<TRIPOS>ATOM
      1 C          61.5974   87.3075   10.7952 C.2     1  UNL1        0.2459
      2 O          61.0592   87.4337   12.1896 O.2     1  UNL1       -0.2730
      3 N          62.2857   86.0448   10.3683 N.am    1  UNL1       -0.2781
      4 C          62.8239   85.9186    8.9739 C.3     1  UNL1        0.0935
      5 C          63.5120   84.6560    8.5471 C.3     1  UNL1        0.0219
      6 C          63.6620   83.5196    9.5147 C.3     1  UNL1        0.0078
      7 C          63.1238   83.6459   10.9090 C.3     1  UNL1        0.0419
      8 C          62.4356   84.9085   11.3358 C.3     1  UNL1        0.0953
      9 C          63.2737   82.5095   11.8766 C.ar    1  UNL1       -0.0209
     10 C          64.4581   82.4581   12.7955 C.ar    1  UNL1       -0.0042
     11 C          64.6081   81.3218   13.7630 C.ar    1  UNL1       -0.0003
     12 C          63.5736   80.2367   13.8117 C.ar    1  UNL1       -0.0000
     13 C          62.3891   80.2881   12.8928 C.ar    1  UNL1       -0.0003
     14 C          62.2392   81.4244   11.9253 C.ar    1  UNL1       -0.0042
     15 C          61.4475   88.4439    9.8276 C.3     1  UNL1        0.1773
     16 C          59.9924   90.5505   10.2687 C.3     1  UNL1        0.1126
     17 N          61.3166   89.8491   10.3356 N.pl3   1  UNL1       -0.2980
     18 C          62.5100   90.5530   10.9106 C.ar    1  UNL1        0.0491
     19 C          63.3222   91.4761   10.0514 C.ar    1  UNL1        0.0154
     20 C          64.5155   92.1800   10.6263 C.ar    1  UNL1        0.0135
     21 C          64.8965   91.9608   12.0604 C.ar    1  UNL1        0.0683
     22 CL         66.0899   92.6647   12.6353 Cl      1  UNL1       -0.0814
     23 C          64.0843   91.0377   12.9196 C.ar    1  UNL1        0.0694
     24 CL         64.4655   90.8185   14.3537 Cl      1  UNL1       -0.0813
     25 C          62.8910   90.3338   12.3447 C.ar    1  UNL1        0.0268
     26 C          61.8973   85.0347   12.7303 C.3     1  UNL1        0.0924
     27 N          62.8318   85.2959   13.8742 N.3     1  UNL1       -0.2713
     28 C          62.7658   84.6578   15.2300 C.3     1  UNL1        0.0722
     29 C          63.8897   85.2086   16.0568 C.3     1  UNL1        0.0188
     30 C          64.6503   86.1872   15.2119 C.3     1  UNL1        0.0188
     31 C          63.9965   86.2412   13.8630 C.3     1  UNL1        0.0722
@<TRIPOS>BOND
     1    16    17    1
     2    17    15    1
     3    15     1    1
     4     1     2    2
     5     1     3   am
     6     3     4    1
     7     4     5    1
     8     5     6    1
     9     6     7    1
    10     7     9    1
    11     9    10   ar
    12    10    11   ar
    13    11    12   ar
    14    12    13   ar
    15    13    14   ar
    16     7     8    1
    17     8    26    1
    18    26    27    1
    19    27    28    1
    20    28    29    1
    21    29    30    1
    22    30    31    1
    23    17    18    1
    24    18    19   ar
    25    19    20   ar
    26    20    21   ar
    27    21    22    1
    28    21    23   ar
    29    23    24    1
    30    23    25   ar
    31     8     3    1
    32    31    27    1
    33    25    18   ar
    34    14     9   ar
@<TRIPOS>MOLECULE
*****
 31 34 0 0 0
SMALL
GASTEIGER

@<TRIPOS>ATOM
      1 C          61.9238   88.6974   11.9161 C.2     1  UNL1        0.2459
      2 O          60.8693   88.2983   10.9269 O.2     1  UNL1       -0.2730
      3 N          62.7469   87.6462   12.6001 N.am    1  UNL1       -0.2781
      4 C          63.8014   88.0453   13.5893 C.3     1  UNL1        0.0935
      5 C          64.6244   86.9942   14.2732 C.3     1  UNL1        0.0219
      6 C          64.3928   85.5439   13.9680 C.3     1  UNL1        0.0078
      7 C          63.3382   85.1448   12.9788 C.3     1  UNL1        0.0419
      8 C          62.5152   86.1960   12.2948 C.3     1  UNL1        0.0953
      9 C          63.1066   83.6946   12.6735 C.ar    1  UNL1       -0.0209
     10 C          62.2650   82.8598   13.5927 C.ar    1  UNL1       -0.0042
     11 C          62.0334   81.4096   13.2874 C.ar    1  UNL1       -0.0003
     12 C          62.6433   80.7942   12.0630 C.ar    1  UNL1       -0.0000
     13 C          63.4848   81.6290   11.1439 C.ar    1  UNL1       -0.0003
     14 C          63.7165   83.0792   11.4491 C.ar    1  UNL1       -0.0042
     15 C          62.1555   90.1476   12.2213 C.3     1  UNL1        0.1773
     16 C          63.2146   91.0067   10.0100 C.3     1  UNL1        0.1126
     17 N          63.2374   90.9011   11.5061 N.pl3   1  UNL1       -0.2980
     18 C          64.3422   91.5491   12.2869 C.ar    1  UNL1        0.0491
     19 C          65.4386   92.2798   11.5700 C.ar    1  UNL1        0.0154
     20 C          66.5433   92.9277   12.3508 C.ar    1  UNL1        0.0135
     21 C          66.5517   92.8450   13.8484 C.ar    1  UNL1        0.0683
     22 CL         67.6565   93.4929   14.6293 Cl      1  UNL1       -0.0814
     23 C          65.4553   92.1142   14.5653 C.ar    1  UNL1        0.0694
     24 CL         65.4637   92.0315   16.0631 Cl      1  UNL1       -0.0813
     25 C          64.3505   91.4663   13.7846 C.ar    1  UNL1        0.0268
     26 C          61.4606   85.7969   11.3056 C.3     1  UNL1        0.0924
     27 N          61.8155   85.6284    9.8579 N.3     1  UNL1       -0.2713
     28 C          63.1345   85.1552    9.3228 C.3     1  UNL1        0.0722
     29 C          63.0479   85.1379    7.8254 C.3     1  UNL1        0.0188
     30 C          61.6755   85.6005    7.4351 C.3     1  UNL1        0.0188
     31 C          60.9138   85.9036    8.6913 C.3     1  UNL1        0.0722
@<TRIPOS>BOND
     1    16    17    1
     2    17    15    1
     3    15     1    1
     4     1     2    2
     5     1     3   am
     6     3     4    1
     7     4     5    1
     8     5     6    1
     9     6     7    1
    10     7     9    1
    11     9    10   ar
    12    10    11   ar
    13    11    12   ar
    14    12    13   ar
    15    13    14   ar
    16     7     8    1
    17     8    26    1
    18    26    27    1
    19    27    28    1
    20    28    29    1
    21    29    30    1
    22    30    31    1
    23    17    18    1
    24    18    19   ar
    25    19    20   ar
    26    20    21   ar
    27    21    22    1
    28    21    23   ar
    29    23    24    1
    30    23    25   ar
    31     8     3    1
    32    31    27    1
    33    25    18   ar
    34    14     9   ar
@<TRIPOS>MOLECULE
*****
 31 34 0 0 0
SMALL
GASTEIGER

@<TRIPOS>ATOM
      1 C          63.0428   88.1990   12.6087 C.2     1  UNL1        0.2459
      2 O          61.9433   88.0001   11.6080 O.2     1  UNL1       -0.2730
      3 N          63.6166   87.0197   13.3369 N.am    1  UNL1       -0.2781
      4 C          64.7161   87.2186   14.3376 C.3     1  UNL1        0.0935
      5 C          65.2899   86.0394   15.0657 C.3     1  UNL1        0.0219
      6 C          64.7641   84.6613   14.7931 C.3     1  UNL1        0.0078
      7 C          63.6645   84.4624   13.7924 C.3     1  UNL1        0.0419
      8 C          63.0908   85.6416   13.0643 C.3     1  UNL1        0.0953
      9 C          63.1387   83.0842   13.5199 C.ar    1  UNL1       -0.0209
     10 C          62.0726   82.5008   14.3990 C.ar    1  UNL1       -0.0042
     11 C          61.5468   81.1227   14.1264 C.ar    1  UNL1       -0.0003
     12 C          62.0871   80.3280   12.9747 C.ar    1  UNL1       -0.0000
     13 C          63.1533   80.9114   12.0956 C.ar    1  UNL1       -0.0003
     14 C          63.6791   82.2895   12.3682 C.ar    1  UNL1       -0.0042
     15 C          63.5686   89.5771   12.8813 C.3     1  UNL1        0.1773
     16 C          62.5483   89.7369   15.2653 C.3     1  UNL1        0.1126
     17 N          63.6305   90.0914   14.2890 N.pl3   1  UNL1       -0.2980
     18 C          64.7747   90.9602   14.7204 C.ar    1  UNL1        0.0491
     19 C          64.6757   91.7560   15.9881 C.ar    1  UNL1        0.0154
     20 C          65.8197   92.6248   16.4196 C.ar    1  UNL1        0.0135
     21 C          67.0629   92.6978   15.5834 C.ar    1  UNL1        0.0683
     22 CL         68.2070   93.5667   16.0149 Cl      1  UNL1       -0.0814
     23 C          67.1619   91.9021   14.3157 C.ar    1  UNL1        0.0694
     24 CL         68.4051   91.9752   13.4795 Cl      1  UNL1       -0.0813
     25 C          66.0178   91.0333   13.8843 C.ar    1  UNL1        0.0268
     26 C          61.9912   85.4427   12.0636 C.3     1  UNL1        0.0924
     27 N          62.3184   85.3148   10.6053 N.3     1  UNL1       -0.2713
     28 C          61.6195   86.0183    9.4798 C.3     1  UNL1        0.0722
     29 C          62.2712   85.5992    8.1954 C.3     1  UNL1        0.0188
     30 C          63.3728   84.6367    8.5270 C.3     1  UNL1        0.0188
     31 C          63.4020   84.4610   10.0164 C.3     1  UNL1        0.0722
@<TRIPOS>BOND
     1    16    17    1
     2    17    15    1
     3    15     1    1
     4     1     2    2
     5     1     3   am
     6     3     4    1
     7     4     5    1
     8     5     6    1
     9     6     7    1
    10     7     9    1
    11     9    10   ar
    12    10    11   ar
    13    11    12   ar
    14    12    13   ar
    15    13    14   ar
    16     7     8    1
    17     8    26    1
    18    26    27    1
    19    27    28    1
    20    28    29    1
    21    29    30    1
    22    30    31    1
    23    17    18    1
    24    18    19   ar
    25    19    20   ar
    26    20    21   ar
    27    21    22    1
    28    21    23   ar
    29    23    24    1
    30    23    25   ar
    31     8     3    1
    32    31    27    1
    33    25    18   ar
    34    14     9   ar
@<TRIPOS>MOLECULE
*****
 31 34 0 0 0
SMALL
GASTEIGER

@<TRIPOS>ATOM
      1 C          61.9596   89.8437   11.7585 C.2     1  UNL1        0.2459
      2 O          61.8844   91.2268   11.1827 O.2     1  UNL1       -0.2730
      3 N          63.0246   89.5047   12.7590 N.am    1  UNL1       -0.2781
      4 C          63.0997   88.1217   13.3347 C.3     1  UNL1        0.0935
      5 C          64.1647   87.7827   14.3352 C.3     1  UNL1        0.0219
      6 C          65.1545   88.8267   14.7599 C.3     1  UNL1        0.0078
      7 C          65.0793   90.2097   14.1841 C.3     1  UNL1        0.0419
      8 C          64.0144   90.5487   13.1836 C.3     1  UNL1        0.0953
      9 C          66.0691   91.2538   14.6087 C.ar    1  UNL1       -0.0209
     10 C          65.7165   92.2223   15.6984 C.ar    1  UNL1       -0.0042
     11 C          66.7063   93.2664   16.1231 C.ar    1  UNL1       -0.0003
     12 C          68.0486   93.3418   15.4581 C.ar    1  UNL1       -0.0000
     13 C          68.4012   92.3733   14.3684 C.ar    1  UNL1       -0.0003
     14 C          67.4114   91.3292   13.9437 C.ar    1  UNL1       -0.0042
     15 C          60.9698   88.7997   11.3338 C.3     1  UNL1        0.1773
     16 C          60.6302   88.6419    8.7629 C.3     1  UNL1        0.1126
     17 N          61.1633   88.0647   10.0406 N.pl3   1  UNL1       -0.2980
     18 C          61.8899   86.7525   10.0252 C.ar    1  UNL1        0.0491
     19 C          62.5430   86.2717    8.7633 C.ar    1  UNL1        0.0154
     20 C          63.2695   84.9595    8.7478 C.ar    1  UNL1        0.0135
     21 C          63.3430   84.1281    9.9941 C.ar    1  UNL1        0.0683
     22 CL         64.0695   82.8159    9.9787 Cl      1  UNL1       -0.0814
     23 C          62.6898   84.6089   11.2560 C.ar    1  UNL1        0.0694
     24 CL         62.7633   83.7775   12.5024 Cl      1  UNL1       -0.0813
     25 C          61.9633   85.9211   11.2715 C.ar    1  UNL1        0.0268
     26 C          63.9391   91.9318   12.6078 C.3     1  UNL1        0.0924
     27 N          65.0973   92.4849   11.8314 N.3     1  UNL1       -0.2713
     28 C          65.8394   93.7519   12.1376 C.3     1  UNL1        0.0722
     29 C          66.9174   93.9182   11.1079 C.3     1  UNL1        0.0188
     30 C          66.8414   92.7540   10.1652 C.3     1  UNL1        0.0188
     31 C          65.7165   91.8681   10.6123 C.3     1  UNL1        0.0722
@<TRIPOS>BOND
     1    16    17    1
     2    17    15    1
     3    15     1    1
     4     1     2    2
     5     1     3   am
     6     3     4    1
     7     4     5    1
     8     5     6    1
     9     6     7    1
    10     7     9    1
    11     9    10   ar
    12    10    11   ar
    13    11    12   ar
    14    12    13   ar
    15    13    14   ar
    16     7     8    1
    17     8    26    1
    18    26    27    1
    19    27    28    1
    20    28    29    1
    21    29    30    1
    22    30    31    1
    23    17    18    1
    24    18    19   ar
    25    19    20   ar
    26    20    21   ar
    27    21    22    1
    28    21    23   ar
    29    23    24    1
    30    23    25   ar
    31     8     3    1
    32    31    27    1
    33    25    18   ar
    34    14     9   ar
@<TRIPOS>MOLECULE
*****
 31 34 0 0 0
SMALL
GASTEIGER

@<TRIPOS>ATOM
      1 C          63.6178   87.2883   13.7765 C.2     1  UNL1        0.2459
      2 O          63.2105   85.8646   14.0159 O.2     1  UNL1       -0.2730
      3 N          63.2152   87.9805   12.5081 N.am    1  UNL1       -0.2781
      4 C          63.6225   89.4041   12.2688 C.3     1  UNL1        0.0935
      5 C          63.2198   90.0962   11.0004 C.3     1  UNL1        0.0219
      6 C          62.4099   89.3647    9.9714 C.3     1  UNL1        0.0078
      7 C          62.0026   87.9411   10.2107 C.3     1  UNL1        0.0419
      8 C          62.4052   87.2490   11.4791 C.3     1  UNL1        0.0953
      9 C          61.1926   87.2096    9.1817 C.ar    1  UNL1       -0.0209
     10 C          59.7216   87.4751    9.0575 C.ar    1  UNL1       -0.0042
     11 C          58.9116   86.7436    8.0285 C.ar    1  UNL1       -0.0003
     12 C          59.5727   85.7466    7.1237 C.ar    1  UNL1       -0.0000
     13 C          61.0438   85.4810    7.2478 C.ar    1  UNL1       -0.0003
     14 C          61.8537   86.2125    8.2769 C.ar    1  UNL1       -0.0042
     15 C          64.4278   88.0198   14.8055 C.3     1  UNL1        0.1773
     16 C          62.5586   89.5040   15.8318 C.3     1  UNL1        0.1126
     17 N          63.9607   89.3483   15.3220 N.pl3   1  UNL1       -0.2980
     18 C          64.8958   90.5213   15.3287 C.ar    1  UNL1        0.0491
     19 C          64.6908   91.6382   16.3088 C.ar    1  UNL1        0.0154
     20 C          65.6258   92.8111   16.3155 C.ar    1  UNL1        0.0135
     21 C          66.7657   92.8670   15.3422 C.ar    1  UNL1        0.0683
     22 CL         67.7008   94.0400   15.3489 Cl      1  UNL1       -0.0814
     23 C          66.9707   91.7501   14.3622 C.ar    1  UNL1        0.0694
     24 CL         68.1107   91.8061   13.3889 Cl      1  UNL1       -0.0813
     25 C          66.0357   90.5772   14.3554 C.ar    1  UNL1        0.0268
     26 C          61.9979   85.8253   11.7185 C.3     1  UNL1        0.0924
     27 N          62.9097   84.7058   11.3116 N.3     1  UNL1       -0.2713
     28 C          63.4687   84.4788    9.9383 C.3     1  UNL1        0.0722
     29 C          64.3270   83.2495    9.9845 C.3     1  UNL1        0.0188
     30 C          64.2985   82.7168   11.3865 C.3     1  UNL1        0.0188
     31 C          63.4226   83.6168   12.2066 C.3     1  UNL1        0.0722
@<TRIPOS>BOND
     1    16    17    1
     2    17    15    1
     3    15     1    1
     4     1     2    2
     5     1     3   am
     6     3     4    1
     7     4     5    1
     8     5     6    1
     9     6     7    1
    10     7     9    1
    11     9    10   ar
    12    10    11   ar
    13    11    12   ar
    14    12    13   ar
    15    13    14   ar
    16     7     8    1
    17     8    26    1
    18    26    27    1
    19    27    28    1
    20    28    29    1
    21    29    30    1
    22    30    31    1
    23    17    18    1
    24    18    19   ar
    25    19    20   ar
    26    20    21   ar
    27    21    22    1
    28    21    23   ar
    29    23    24    1
    30    23    25   ar
    31     8     3    1
    32    31    27    1
    33    25    18   ar
    34    14     9   ar
@<TRIPOS>MOLECULE
*****
 31 34 0 0 0
SMALL
GASTEIGER

@<TRIPOS>ATOM
      1 C          63.7406   90.2354   12.3744 C.2     1  UNL1        0.2459
      2 O          63.3790   90.0968   10.9253 O.2     1  UNL1       -0.2730
      3 N          63.7890   89.0218   13.2547 N.am    1  UNL1       -0.2781
      4 C          64.1506   89.1604   14.7038 C.3     1  UNL1        0.0935
      5 C          64.1990   87.9469   15.5841 C.3     1  UNL1        0.0219
      6 C          63.8857   86.5948   15.0153 C.3     1  UNL1        0.0078
      7 C          63.5240   86.4561   13.5662 C.3     1  UNL1        0.0419
      8 C          63.4757   87.6697   12.6859 C.3     1  UNL1        0.0953
      9 C          63.2108   85.1040   12.9974 C.ar    1  UNL1       -0.0209
     10 C          63.4335   84.8340   11.5388 C.ar    1  UNL1       -0.0042
     11 C          63.1202   83.4818   10.9700 C.ar    1  UNL1       -0.0003
     12 C          62.5842   82.3997   11.8597 C.ar    1  UNL1       -0.0000
     13 C          62.3614   82.6698   13.3183 C.ar    1  UNL1       -0.0003
     14 C          62.6747   84.0219   13.8871 C.ar    1  UNL1       -0.0042
     15 C          64.0539   91.5875   12.9432 C.3     1  UNL1        0.1773
     16 C          66.3099   91.7501   14.2215 C.3     1  UNL1        0.1126
     17 N          65.4757   92.0603   13.0141 N.pl3   1  UNL1       -0.2980
     18 C          66.0633   92.8433   11.8775 C.ar    1  UNL1        0.0491
     19 C          65.7080   94.2898   11.7006 C.ar    1  UNL1        0.0154
     20 C          66.2956   95.0728   10.5641 C.ar    1  UNL1        0.0135
     21 C          67.2384   94.4093    9.6046 C.ar    1  UNL1        0.0683
     22 CL         67.8260   95.1923    8.4680 Cl      1  UNL1       -0.0814
     23 C          67.5937   92.9628    9.7816 C.ar    1  UNL1        0.0694
     24 CL         68.5366   92.2992    8.8220 Cl      1  UNL1       -0.0813
     25 C          67.0061   92.1798   10.9180 C.ar    1  UNL1        0.0268
     26 C          63.1140   87.5311   11.2367 C.3     1  UNL1        0.0924
     27 N          61.6892   87.7012   10.7997 N.3     1  UNL1       -0.2713
     28 C          61.0767   87.1387    9.5514 C.3     1  UNL1        0.0722
     29 C          59.6357   87.5535    9.5145 C.3     1  UNL1        0.0188
     30 C          59.3576   88.3725   10.7400 C.3     1  UNL1        0.0188
     31 C          60.6267   88.4638   11.5343 C.3     1  UNL1        0.0722
@<TRIPOS>BOND
     1    16    17    1
     2    17    15    1
     3    15     1    1
     4     1     2    2
     5     1     3   am
     6     3     4    1
     7     4     5    1
     8     5     6    1
     9     6     7    1
    10     7     9    1
    11     9    10   ar
    12    10    11   ar
    13    11    12   ar
    14    12    13   ar
    15    13    14   ar
    16     7     8    1
    17     8    26    1
    18    26    27    1
    19    27    28    1
    20    28    29    1
    21    29    30    1
    22    30    31    1
    23    17    18    1
    24    18    19   ar
    25    19    20   ar
    26    20    21   ar
    27    21    22    1
    28    21    23   ar
    29    23    24    1
    30    23    25   ar
    31     8     3    1
    32    31    27    1
    33    25    18   ar
    34    14     9   ar
