@<TRIPOS>MOLECULE
*****
 22 24 0 0 0
SMALL
GASTEIGER

@<TRIPOS>ATOM
      1 C          62.6357   85.0651   11.3305 C.ar    1  UNL1        0.0427
      2 C          62.7661   84.6630    9.8913 C.ar    1  UNL1        0.0077
      3 C          63.7550   83.6074    9.4941 C.ar    1  UNL1        0.0006
      4 C          64.6135   82.9539   10.5361 C.ar    1  UNL1        0.0013
      5 C          64.4832   83.3559   11.9754 C.ar    1  UNL1        0.0150
      6 C          63.4943   84.4115   12.3726 C.ar    1  UNL1        0.0540
      7 N          63.3639   84.8136   13.8117 N.pl3   1  UNL1       -0.3043
      8 C          62.3677   84.1237   14.6958 C.3     1  UNL1        0.1079
      9 C          62.2372   84.5258   16.1351 C.3     1  UNL1        0.0903
     10 N          63.1030   85.6177   16.6902 N.3     1  UNL1       -0.2946
     11 C          64.0993   86.3076   15.8060 C.3     1  UNL1        0.0903
     12 C          64.2297   85.9055   14.3668 C.3     1  UNL1        0.1079
     13 H          63.6281   85.2120   17.4649 H       1  UNL1        0.1233
     14 S          61.6468   86.1207   11.7277 S.3     1  UNL1       -0.0860
     15 C          62.7391   91.0078   10.3410 C.3     1  UNL1        0.0307
     16 C          61.9558   89.7446   10.1395 C.ar    1  UNL1       -0.0253
     17 C          60.9354   89.6615    9.0432 C.ar    1  UNL1       -0.0045
     18 C          60.1521   88.3983    8.8418 C.ar    1  UNL1        0.0002
     19 C          60.3893   87.2180    9.7366 C.ar    1  UNL1        0.0061
     20 C          61.4097   87.3010   10.8329 C.ar    1  UNL1        0.0252
     21 C          62.1930   88.5642   11.0344 C.ar    1  UNL1       -0.0198
     22 C          63.2134   88.6473   12.1306 C.3     1  UNL1        0.0312
@<TRIPOS>BOND
     1    15    16    1
     2    16    17   ar
     3    17    18   ar
     4    18    19   ar
     5    19    20   ar
     6    20    14    1
     7    14     1    1
     8     1     2   ar
     9     2     3   ar
    10     3     4   ar
    11     4     5   ar
    12     5     6   ar
    13     6     7    1
    14     7     8    1
    15     8     9    1
    16     9    10    1
    17    10    11    1
    18    11    12    1
    19    20    21   ar
    20    21    22    1
    21    21    16   ar
    22     6     1   ar
    23    12     7    1
    24    10    13    1
@<TRIPOS>MOLECULE
*****
 22 24 0 0 0
SMALL
GASTEIGER

@<TRIPOS>ATOM
      1 C          64.7781   91.9666   12.1966 C.ar    1  UNL1        0.0427
      2 C          63.7096   91.4251   11.2939 C.ar    1  UNL1        0.0077
      3 C          63.0670   90.1048   11.6003 C.ar    1  UNL1        0.0006
      4 C          63.4929   89.3260   12.8094 C.ar    1  UNL1        0.0013
      5 C          64.5615   89.8675   13.7122 C.ar    1  UNL1        0.0150
      6 C          65.2041   91.1878   13.4058 C.ar    1  UNL1        0.0540
      7 N          66.2727   91.7293   14.3085 N.pl3   1  UNL1       -0.3043
      8 C          65.9038   92.3198   15.6371 C.3     1  UNL1        0.1079
      9 C          66.9723   92.8613   16.5399 C.3     1  UNL1        0.0903
     10 N          68.4098   92.8123   16.1140 N.3     1  UNL1       -0.2946
     11 C          68.7786   92.2218   14.7854 C.3     1  UNL1        0.0903
     12 C          67.7101   91.6803   13.8826 C.3     1  UNL1        0.1079
     13 H          68.9090   92.2758   16.8235 H       1  UNL1        0.1233
     14 S          65.4207   93.2869   11.8902 S.3     1  UNL1       -0.0860
     15 C          67.5199   96.0717    8.0381 C.3     1  UNL1        0.0307
     16 C          67.4368   94.7961    8.8231 C.ar    1  UNL1       -0.0253
     17 C          68.3203   93.6375    8.4669 C.ar    1  UNL1       -0.0045
     18 C          68.2373   92.3619    9.2518 C.ar    1  UNL1        0.0002
     19 C          67.2708   92.2451   10.3929 C.ar    1  UNL1        0.0061
     20 C          66.3872   93.4038   10.7491 C.ar    1  UNL1        0.0252
     21 C          66.4703   94.6793    9.9642 C.ar    1  UNL1       -0.0198
     22 C          65.5868   95.8380   10.3204 C.3     1  UNL1        0.0312
@<TRIPOS>BOND
     1    15    16    1
     2    16    17   ar
     3    17    18   ar
     4    18    19   ar
     5    19    20   ar
     6    20    14    1
     7    14     1    1
     8     1     2   ar
     9     2     3   ar
    10     3     4   ar
    11     4     5   ar
    12     5     6   ar
    13     6     7    1
    14     7     8    1
    15     8     9    1
    16     9    10    1
    17    10    11    1
    18    11    12    1
    19    20    21   ar
    20    21    22    1
    21    21    16   ar
    22     6     1   ar
    23    12     7    1
    24    10    13    1
@<TRIPOS>MOLECULE
*****
 22 24 0 0 0
SMALL
GASTEIGER

@<TRIPOS>ATOM
      1 C          63.3893   90.4119   12.7982 C.ar    1  UNL1        0.0427
      2 C          63.7431   91.4947   11.8224 C.ar    1  UNL1        0.0077
      3 C          65.0363   92.2409   11.9664 C.ar    1  UNL1        0.0006
      4 C          65.9757   91.9043   13.0863 C.ar    1  UNL1        0.0013
      5 C          65.6219   90.8215   14.0623 C.ar    1  UNL1        0.0150
      6 C          64.3287   90.0753   13.9182 C.ar    1  UNL1        0.0540
      7 N          63.9748   88.9926   14.8941 N.pl3   1  UNL1       -0.3043
      8 C          63.2611   89.3351   16.1681 C.3     1  UNL1        0.1079
      9 C          62.9072   88.2523   17.1441 C.3     1  UNL1        0.0903
     10 N          63.2671   86.8270   16.8459 N.3     1  UNL1       -0.2946
     11 C          63.9809   86.4845   15.5718 C.3     1  UNL1        0.0903
     12 C          64.3347   87.5672   14.5959 C.3     1  UNL1        0.1079
     13 H          62.3957   86.2969   16.8469 H       1  UNL1        0.1233
     14 S          62.0961   89.6657   12.6542 S.3     1  UNL1       -0.0860
     15 C          59.7637   88.7159    8.1091 C.3     1  UNL1        0.0307
     16 C          60.7073   88.2974    9.1974 C.ar    1  UNL1       -0.0253
     17 C          61.4284   86.9857    9.1015 C.ar    1  UNL1       -0.0045
     18 C          62.3721   86.5672   10.1898 C.ar    1  UNL1        0.0002
     19 C          62.5946   87.4605   11.3740 C.ar    1  UNL1        0.0061
     20 C          61.8735   88.7724   11.4700 C.ar    1  UNL1        0.0252
     21 C          60.9299   89.1908   10.3817 C.ar    1  UNL1       -0.0198
     22 C          60.2088   90.5026   10.4775 C.3     1  UNL1        0.0312
@<TRIPOS>BOND
     1    15    16    1
     2    16    17   ar
     3    17    18   ar
     4    18    19   ar
     5    19    20   ar
     6    20    14    1
     7    14     1    1
     8     1     2   ar
     9     2     3   ar
    10     3     4   ar
    11     4     5   ar
    12     5     6   ar
    13     6     7    1
    14     7     8    1
    15     8     9    1
    16     9    10    1
    17    10    11    1
    18    11    12    1
    19    20    21   ar
    20    21    22    1
    21    21    16   ar
    22     6     1   ar
    23    12     7    1
    24    10    13    1
@<TRIPOS>MOLECULE
*****
 22 24 0 0 0
SMALL
GASTEIGER

@<TRIPOS>ATOM
      1 C          62.6414   85.0188   11.2644 C.ar    1  UNL1        0.0427
      2 C          62.8029   84.5741    9.8410 C.ar    1  UNL1        0.0077
      3 C          63.8280   83.5365    9.4911 C.ar    1  UNL1        0.0006
      4 C          64.6917   82.9435   10.5646 C.ar    1  UNL1        0.0013
      5 C          64.5302   83.3882   11.9881 C.ar    1  UNL1        0.0150
      6 C          63.5051   84.4258   12.3380 C.ar    1  UNL1        0.0540
      7 N          63.3437   84.8705   13.7614 N.pl3   1  UNL1       -0.3043
      8 C          64.1441   86.0278   14.2809 C.3     1  UNL1        0.1079
      9 C          63.9826   86.4725   15.7044 C.3     1  UNL1        0.0903
     10 N          63.0208   85.7599   16.6083 N.3     1  UNL1       -0.2946
     11 C          62.2204   84.6025   16.0887 C.3     1  UNL1        0.0903
     12 C          62.3818   84.1578   14.6653 C.3     1  UNL1        0.1079
     13 H          62.3521   86.4573   16.9352 H       1  UNL1        0.1233
     14 S          61.6163   86.0564   11.6143 S.3     1  UNL1       -0.0860
     15 C          60.0659   89.5292    8.0737 C.3     1  UNL1        0.0307
     16 C          60.9287   89.1654    9.2455 C.ar    1  UNL1       -0.0253
     17 C          61.8793   90.1743    9.8188 C.ar    1  UNL1       -0.0045
     18 C          62.7421   89.8105   10.9906 C.ar    1  UNL1        0.0002
     19 C          62.6545   88.4379   11.5891 C.ar    1  UNL1        0.0061
     20 C          61.7040   87.4290   11.0158 C.ar    1  UNL1        0.0252
     21 C          60.8411   87.7927    9.8440 C.ar    1  UNL1       -0.0198
     22 C          59.8906   86.7839    9.2707 C.3     1  UNL1        0.0312
@<TRIPOS>BOND
     1    15    16    1
     2    16    17   ar
     3    17    18   ar
     4    18    19   ar
     5    19    20   ar
     6    20    14    1
     7    14     1    1
     8     1     2   ar
     9     2     3   ar
    10     3     4   ar
    11     4     5   ar
    12     5     6   ar
    13     6     7    1
    14     7     8    1
    15     8     9    1
    16     9    10    1
    17    10    11    1
    18    11    12    1
    19    20    21   ar
    20    21    22    1
    21    21    16   ar
    22     6     1   ar
    23    12     7    1
    24    10    13    1
@<TRIPOS>MOLECULE
*****
 22 24 0 0 0
SMALL
GASTEIGER

@<TRIPOS>ATOM
      1 C          60.7909   87.2178    9.8066 C.ar    1  UNL1        0.0427
      2 C          59.9579   86.4001    8.8646 C.ar    1  UNL1        0.0077
      3 C          59.2421   87.0648    7.7263 C.ar    1  UNL1        0.0006
      4 C          59.3593   88.5473    7.5299 C.ar    1  UNL1        0.0013
      5 C          60.1924   89.3651    8.4719 C.ar    1  UNL1        0.0150
      6 C          60.9082   88.7004    9.6103 C.ar    1  UNL1        0.0540
      7 N          61.7412   89.5181   10.5522 N.pl3   1  UNL1       -0.3043
      8 C          62.7782   90.4582   10.0132 C.3     1  UNL1        0.1079
      9 C          63.6113   91.2760   10.9552 C.3     1  UNL1        0.0903
     10 N          63.4073   91.1536   12.4362 N.3     1  UNL1       -0.2946
     11 C          62.3702   90.2133   12.9752 C.3     1  UNL1        0.0903
     12 C          61.5372   89.3956   12.0332 C.3     1  UNL1        0.1079
     13 H          63.1675   92.0841   12.7783 H       1  UNL1        0.1233
     14 S          61.5067   86.5531   10.9449 S.3     1  UNL1       -0.0860
     15 C          64.2772   82.5160   12.6846 C.3     1  UNL1        0.0307
     16 C          63.8127   83.3803   11.5501 C.ar    1  UNL1       -0.0253
     17 C          64.2689   83.0905   10.1509 C.ar    1  UNL1       -0.0045
     18 C          63.8044   83.9548    9.0163 C.ar    1  UNL1        0.0002
     19 C          62.8837   85.1090    9.2810 C.ar    1  UNL1        0.0061
     20 C          62.4274   85.3989   10.6802 C.ar    1  UNL1        0.0252
     21 C          62.8919   84.5346   11.8148 C.ar    1  UNL1       -0.0198
     22 C          62.4357   84.8245   13.2140 C.3     1  UNL1        0.0312
@<TRIPOS>BOND
     1    15    16    1
     2    16    17   ar
     3    17    18   ar
     4    18    19   ar
     5    19    20   ar
     6    20    14    1
     7    14     1    1
     8     1     2   ar
     9     2     3   ar
    10     3     4   ar
    11     4     5   ar
    12     5     6   ar
    13     6     7    1
    14     7     8    1
    15     8     9    1
    16     9    10    1
    17    10    11    1
    18    11    12    1
    19    20    21   ar
    20    21    22    1
    21    21    16   ar
    22     6     1   ar
    23    12     7    1
    24    10    13    1
@<TRIPOS>MOLECULE
*****
 22 24 0 0 0
SMALL
GASTEIGER

@<TRIPOS>ATOM
      1 C          63.3321   90.3402   12.8031 C.ar    1  UNL1        0.0427
      2 C          63.6584   91.4170   11.8111 C.ar    1  UNL1        0.0077
      3 C          64.9355   92.1932   11.9396 C.ar    1  UNL1        0.0006
      4 C          65.8863   91.8926   13.0601 C.ar    1  UNL1        0.0013
      5 C          65.5600   90.8158   14.0522 C.ar    1  UNL1        0.0150
      6 C          64.2829   90.0396   13.9237 C.ar    1  UNL1        0.0540
      7 N          63.9567   88.9629   14.9156 N.pl3   1  UNL1       -0.3043
      8 C          64.3412   87.5409   14.6327 C.3     1  UNL1        0.1079
      9 C          64.0149   86.4641   15.6247 C.3     1  UNL1        0.0903
     10 N          63.3041   86.8093   16.8997 N.3     1  UNL1       -0.2946
     11 C          62.9196   88.2313   17.1826 C.3     1  UNL1        0.0903
     12 C          63.2459   89.3081   16.1906 C.3     1  UNL1        0.1079
     13 H          63.9091   86.5101   17.6644 H       1  UNL1        0.1233
     14 S          62.0550   89.5640   12.6746 S.3     1  UNL1       -0.0860
     15 C          61.5993   86.1283    8.8031 C.3     1  UNL1        0.0307
     16 C          61.3049   87.4808    9.3810 C.ar    1  UNL1       -0.0253
     17 C          60.4882   88.4680    8.6010 C.ar    1  UNL1       -0.0045
     18 C          60.1938   89.8206    9.1788 C.ar    1  UNL1        0.0002
     19 C          60.7160   90.1859   10.5367 C.ar    1  UNL1        0.0061
     20 C          61.5328   89.1987   11.3167 C.ar    1  UNL1        0.0252
     21 C          61.8272   87.8461   10.7389 C.ar    1  UNL1       -0.0198
     22 C          62.6439   86.8589   11.5189 C.3     1  UNL1        0.0312
@<TRIPOS>BOND
     1    15    16    1
     2    16    17   ar
     3    17    18   ar
     4    18    19   ar
     5    19    20   ar
     6    20    14    1
     7    14     1    1
     8     1     2   ar
     9     2     3   ar
    10     3     4   ar
    11     4     5   ar
    12     5     6   ar
    13     6     7    1
    14     7     8    1
    15     8     9    1
    16     9    10    1
    17    10    11    1
    18    11    12    1
    19    20    21   ar
    20    21    22    1
    21    21    16   ar
    22     6     1   ar
    23    12     7    1
    24    10    13    1
@<TRIPOS>MOLECULE
*****
 22 24 0 0 0
SMALL
GASTEIGER

@<TRIPOS>ATOM
      1 C          62.1034   87.7955   11.3355 C.ar    1  UNL1        0.0427
      2 C          63.1027   88.1501   12.3965 C.ar    1  UNL1        0.0077
      3 C          63.6412   89.5475   12.4825 C.ar    1  UNL1        0.0006
      4 C          63.1805   90.5902   11.5076 C.ar    1  UNL1        0.0013
      5 C          62.1812   90.2356   10.4466 C.ar    1  UNL1        0.0150
      6 C          61.6426   88.8382   10.3605 C.ar    1  UNL1        0.0540
      7 N          60.6434   88.4836    9.2996 N.pl3   1  UNL1       -0.3043
      8 C          60.2540   89.4991    8.2666 C.3     1  UNL1        0.1079
      9 C          59.2547   89.1445    7.2056 C.3     1  UNL1        0.0903
     10 N          58.6448   87.7743    7.1776 N.3     1  UNL1       -0.2946
     11 C          59.0343   86.7588    8.2106 C.3     1  UNL1        0.0903
     12 C          60.0336   87.1134    9.2716 C.3     1  UNL1        0.1079
     13 H          58.8696   87.3705    6.2683 H       1  UNL1        0.1233
     14 S          61.5649   86.3981   11.2495 S.3     1  UNL1       -0.0860
     15 C          64.3625   82.3072   12.8109 C.3     1  UNL1        0.0307
     16 C          63.8850   83.2120   11.7139 C.ar    1  UNL1       -0.0253
     17 C          64.3288   82.9761   10.3006 C.ar    1  UNL1       -0.0045
     18 C          63.8513   83.8808    9.2036 C.ar    1  UNL1        0.0002
     19 C          62.9300   85.0215    9.5199 C.ar    1  UNL1        0.0061
     20 C          62.4862   85.2575   10.9332 C.ar    1  UNL1        0.0252
     21 C          62.9637   84.3527   12.0302 C.ar    1  UNL1       -0.0198
     22 C          62.5199   84.5886   13.4435 C.3     1  UNL1        0.0312
@<TRIPOS>BOND
     1    15    16    1
     2    16    17   ar
     3    17    18   ar
     4    18    19   ar
     5    19    20   ar
     6    20    14    1
     7    14     1    1
     8     1     2   ar
     9     2     3   ar
    10     3     4   ar
    11     4     5   ar
    12     5     6   ar
    13     6     7    1
    14     7     8    1
    15     8     9    1
    16     9    10    1
    17    10    11    1
    18    11    12    1
    19    20    21   ar
    20    21    22    1
    21    21    16   ar
    22     6     1   ar
    23    12     7    1
    24    10    13    1
@<TRIPOS>MOLECULE
*****
 22 24 0 0 0
SMALL
GASTEIGER

@<TRIPOS>ATOM
      1 C          61.4341   88.0237   10.2134 C.ar    1  UNL1        0.0427
      2 C          60.6243   89.1237    9.5935 C.ar    1  UNL1        0.0077
      3 C          59.7890   88.8469    8.3787 C.ar    1  UNL1        0.0006
      4 C          59.7634   87.4701    7.7839 C.ar    1  UNL1        0.0013
      5 C          60.5732   86.3701    8.4038 C.ar    1  UNL1        0.0150
      6 C          61.4086   86.6469    9.6185 C.ar    1  UNL1        0.0540
      7 N          62.2184   85.5469   10.2384 N.pl3   1  UNL1       -0.3043
      8 C          62.1057   85.2697   11.7082 C.3     1  UNL1        0.1079
      9 C          62.9155   84.1697   12.3282 C.3     1  UNL1        0.0903
     10 N          63.8379   83.3470   11.4783 N.3     1  UNL1       -0.2946
     11 C          63.9505   83.6243   10.0084 C.3     1  UNL1        0.0903
     12 C          63.1408   84.7242    9.3885 C.3     1  UNL1        0.1079
     13 H          63.5383   82.3766   11.5728 H       1  UNL1        0.1233
     14 S          62.2695   88.3005   11.4281 S.3     1  UNL1       -0.0860
     15 C          65.4059   91.4640   14.1029 C.3     1  UNL1        0.0307
     16 C          64.6269   91.1544   12.8590 C.ar    1  UNL1       -0.0253
     17 C          64.6372   92.1169   11.7086 C.ar    1  UNL1       -0.0045
     18 C          63.8582   91.8073   10.4647 C.ar    1  UNL1        0.0002
     19 C          63.0690   90.5352   10.3712 C.ar    1  UNL1        0.0061
     20 C          63.0587   89.5726   11.5216 C.ar    1  UNL1        0.0252
     21 C          63.8377   89.8822   12.7655 C.ar    1  UNL1       -0.0198
     22 C          63.8274   88.9197   13.9159 C.3     1  UNL1        0.0312
@<TRIPOS>BOND
     1    15    16    1
     2    16    17   ar
     3    17    18   ar
     4    18    19   ar
     5    19    20   ar
     6    20    14    1
     7    14     1    1
     8     1     2   ar
     9     2     3   ar
    10     3     4   ar
    11     4     5   ar
    12     5     6   ar
    13     6     7    1
    14     7     8    1
    15     8     9    1
    16     9    10    1
    17    10    11    1
    18    11    12    1
    19    20    21   ar
    20    21    22    1
    21    21    16   ar
    22     6     1   ar
    23    12     7    1
    24    10    13    1
@<TRIPOS>MOLECULE
*****
 22 24 0 0 0
SMALL
GASTEIGER

@<TRIPOS>ATOM
      1 C          62.6809   85.4445   11.1283 C.ar    1  UNL1        0.0427
      2 C          62.7686   85.2288    9.6465 C.ar    1  UNL1        0.0077
      3 C          63.5581   84.0755    9.1018 C.ar    1  UNL1        0.0006
      4 C          64.2598   83.1378   10.0390 C.ar    1  UNL1        0.0013
      5 C          64.1721   83.3535   11.5209 C.ar    1  UNL1        0.0150
      6 C          63.3827   84.5068   12.0655 C.ar    1  UNL1        0.0540
      7 N          63.2949   84.7225   13.5473 N.pl3   1  UNL1       -0.3043
      8 C          62.1651   84.1186   14.3275 C.3     1  UNL1        0.1079
      9 C          62.0773   84.3342   15.8093 C.3     1  UNL1        0.0903
     10 N          63.1194   85.1538   16.5110 N.3     1  UNL1       -0.2946
     11 C          64.2493   85.7577   15.7307 C.3     1  UNL1        0.0903
     12 C          64.3371   85.5420   14.2489 C.3     1  UNL1        0.1079
     13 H          63.5394   84.5521   17.2195 H       1  UNL1        0.1233
     14 S          61.8914   86.5978   11.6729 S.3     1  UNL1       -0.0860
     15 C          62.8508   91.3788    9.8779 C.3     1  UNL1        0.0307
     16 C          63.0197   90.3310   10.9379 C.ar    1  UNL1       -0.0253
     17 C          63.8373   90.6259   12.1604 C.ar    1  UNL1       -0.0045
     18 C          64.0063   89.5782   13.2204 C.ar    1  UNL1        0.0002
     19 C          63.3577   88.2355   13.0579 C.ar    1  UNL1        0.0061
     20 C          62.5400   87.9405   11.8354 C.ar    1  UNL1        0.0252
     21 C          62.3711   88.9883   10.7754 C.ar    1  UNL1       -0.0198
     22 C          61.5535   88.6933    9.5528 C.3     1  UNL1        0.0312
@<TRIPOS>BOND
     1    15    16    1
     2    16    17   ar
     3    17    18   ar
     4    18    19   ar
     5    19    20   ar
     6    20    14    1
     7    14     1    1
     8     1     2   ar
     9     2     3   ar
    10     3     4   ar
    11     4     5   ar
    12     5     6   ar
    13     6     7    1
    14     7     8    1
    15     8     9    1
    16     9    10    1
    17    10    11    1
    18    11    12    1
    19    20    21   ar
    20    21    22    1
    21    21    16   ar
    22     6     1   ar
    23    12     7    1
    24    10    13    1
