@<TRIPOS>MOLECULE
*****
 33 36 0 0 0
SMALL
GASTEIGER

@<TRIPOS>ATOM
      1 N          63.7478   89.2122   15.9444 N.3     1  UNL1       -0.2688
      2 C          64.4102   88.5592   14.7676 C.3     1  UNL1        0.0741
      3 C          64.4208   87.0640   14.6472 C.3     1  UNL1        0.0369
      4 C          63.7690   86.2219   15.7036 C.3     1  UNL1        0.0743
      5 C          63.1066   86.8750   16.8805 C.3     1  UNL1        0.0369
      6 C          63.0960   88.3701   17.0008 C.3     1  UNL1        0.0741
      7 N          63.7795   84.7269   15.5833 N.am    1  UNL1       -0.3056
      8 C          62.9247   84.0514   14.5523 C.2     1  UNL1        0.2269
      9 O          62.0593   84.8710   13.6417 O.2     1  UNL1       -0.2747
     10 H          64.3475   84.1889   16.1810 H       1  UNL1        0.1494
     11 C          62.9352   82.5562   14.4320 C.3     1  UNL1        0.1113
     12 C          63.0365   81.9133   13.0806 C.ar    1  UNL1       -0.0131
     13 C          63.6031   82.6829   11.9244 C.ar    1  UNL1       -0.0038
     14 C          63.7043   82.0399   10.5729 C.ar    1  UNL1       -0.0003
     15 C          63.2390   80.6274   10.3777 C.ar    1  UNL1       -0.0000
     16 C          62.6724   79.8578   11.5338 C.ar    1  UNL1       -0.0003
     17 C          62.5712   80.5007   12.8852 C.ar    1  UNL1       -0.0038
     18 C          63.7373   90.7073   16.0647 C.3     1  UNL1        0.0992
     19 C          65.4350   92.4388   12.9230 C.ar    1  UNL1        0.1452
     20 C          66.5573   93.1844   13.5824 C.ar    1  UNL1        0.0375
     21 C          66.7395   93.1043   15.0691 C.ar    1  UNL1        0.0029
     22 C          65.7995   92.2786   15.8965 C.ar    1  UNL1       -0.0027
     23 C          64.6773   91.5330   15.2373 C.ar    1  UNL1       -0.0031
     24 C          64.4950   91.6131   13.7505 C.ar    1  UNL1        0.0346
     25 O          65.2527   92.5190   11.4364 O.3     1  UNL1       -0.4504
     26 C          66.4456   94.3974   10.0952 C.ar    1  UNL1        0.1730
     27 C          67.5788   94.8525    9.2242 C.ar    1  UNL1        0.0401
     28 C          68.6522   93.8846    8.8231 C.ar    1  UNL1        0.0033
     29 C          68.5924   92.4614    9.2932 C.ar    1  UNL1        0.0033
     30 C          67.4593   92.0062   10.1642 C.ar    1  UNL1        0.0406
     31 C          66.3859   92.9742   10.5652 C.ar    1  UNL1        0.1789
     32 C          65.7425   96.6926   11.0890 C.3     1  UNL1        0.2526
     33 O          65.3723   95.3654   10.4963 O.3     1  UNL1       -0.4684
@<TRIPOS>BOND
     1    32    33    1
     2    33    26    1
     3    26    27   ar
     4    27    28   ar
     5    28    29   ar
     6    29    30   ar
     7    30    31   ar
     8    31    25    1
     9    25    19    1
    10    19    20   ar
    11    20    21   ar
    12    21    22   ar
    13    22    23   ar
    14    23    18    1
    15    18     1    1
    16     1     2    1
    17     2     3    1
    18     3     4    1
    19     4     7    1
    20     7     8   am
    21     8     9    2
    22     8    11    1
    23    11    12    1
    24    12    13   ar
    25    13    14   ar
    26    14    15   ar
    27    15    16   ar
    28    16    17   ar
    29     4     5    1
    30     5     6    1
    31    23    24   ar
    32    31    26   ar
    33    24    19   ar
    34     6     1    1
    35    17    12   ar
    36     7    10    1
@<TRIPOS>MOLECULE
*****
 33 36 0 0 0
SMALL
GASTEIGER

@<TRIPOS>ATOM
      1 N          63.8614   89.5179   15.6664 N.3     1  UNL1       -0.2688
      2 C          64.5475   88.7329   14.5879 C.3     1  UNL1        0.0741
      3 C          64.5140   87.2335   14.6148 C.3     1  UNL1        0.0369
      4 C          63.7943   86.5191   15.7201 C.3     1  UNL1        0.0743
      5 C          63.1081   87.3041   16.7985 C.3     1  UNL1        0.0369
      6 C          63.1417   88.8035   16.7717 C.3     1  UNL1        0.0741
      7 N          63.7607   85.0197   15.7470 N.am    1  UNL1       -0.3056
      8 C          62.8586   84.2729   14.8098 C.2     1  UNL1        0.2269
      9 O          61.9901   85.0254   13.8457 O.2     1  UNL1       -0.2747
     10 H          64.3307   84.5258   16.3797 H       1  UNL1        0.1494
     11 C          62.8250   82.7734   14.8366 C.3     1  UNL1        0.1113
     12 C          62.8908   81.9987   13.5539 C.ar    1  UNL1       -0.0131
     13 C          63.3871   82.6605   12.3026 C.ar    1  UNL1       -0.0038
     14 C          63.4529   81.8857   11.0198 C.ar    1  UNL1       -0.0003
     15 C          63.0225   80.4491   10.9884 C.ar    1  UNL1       -0.0000
     16 C          62.5263   79.7873   12.2397 C.ar    1  UNL1       -0.0003
     17 C          62.4605   80.5620   13.5224 C.ar    1  UNL1       -0.0038
     18 C          63.8950   91.0172   15.6395 C.3     1  UNL1        0.0992
     19 C          66.7481   92.4584   13.2873 C.ar    1  UNL1        0.1452
     20 C          67.6146   93.1607   14.2904 C.ar    1  UNL1        0.0375
     21 C          67.2412   93.1485   15.7430 C.ar    1  UNL1        0.0029
     22 C          66.0013   92.4340   16.1928 C.ar    1  UNL1       -0.0027
     23 C          65.1349   91.7317   15.1898 C.ar    1  UNL1       -0.0031
     24 C          65.5083   91.7439   13.7370 C.ar    1  UNL1        0.0346
     25 O          67.1216   92.4706   11.8346 O.3     1  UNL1       -0.4504
     26 C          67.8419   94.0424    9.8954 C.ar    1  UNL1        0.1730
     27 C          67.6207   95.2782    9.0746 C.ar    1  UNL1        0.0401
     28 C          66.4579   96.1779    9.3719 C.ar    1  UNL1        0.0033
     29 C          65.5163   95.8419   10.4902 C.ar    1  UNL1        0.0033
     30 C          65.7376   94.6061   11.3110 C.ar    1  UNL1        0.0406
     31 C          66.9004   93.7064   11.0137 C.ar    1  UNL1        0.1789
     32 C          68.8461   92.0069    8.6313 C.3     1  UNL1        0.2526
     33 O          69.0047   93.1427    9.5981 O.3     1  UNL1       -0.4684
@<TRIPOS>BOND
     1    32    33    1
     2    33    26    1
     3    26    27   ar
     4    27    28   ar
     5    28    29   ar
     6    29    30   ar
     7    30    31   ar
     8    31    25    1
     9    25    19    1
    10    19    20   ar
    11    20    21   ar
    12    21    22   ar
    13    22    23   ar
    14    23    18    1
    15    18     1    1
    16     1     2    1
    17     2     3    1
    18     3     4    1
    19     4     7    1
    20     7     8   am
    21     8     9    2
    22     8    11    1
    23    11    12    1
    24    12    13   ar
    25    13    14   ar
    26    14    15   ar
    27    15    16   ar
    28    16    17   ar
    29     4     5    1
    30     5     6    1
    31    23    24   ar
    32    31    26   ar
    33    24    19   ar
    34     6     1    1
    35    17    12   ar
    36     7    10    1
@<TRIPOS>MOLECULE
*****
 33 36 0 0 0
SMALL
GASTEIGER

@<TRIPOS>ATOM
      1 N          61.0125   88.5087   10.2792 N.3     1  UNL1       -0.2688
      2 C          62.3915   89.0374   10.0169 C.3     1  UNL1        0.0741
      3 C          63.0600   89.9226   11.0267 C.3     1  UNL1        0.0369
      4 C          62.3495   90.2790   12.2987 C.3     1  UNL1        0.0743
      5 C          60.9704   89.7503   12.5610 C.3     1  UNL1        0.0369
      6 C          60.3020   88.8651   11.5513 C.3     1  UNL1        0.0741
      7 N          63.0179   91.1642   13.3085 N.am    1  UNL1       -0.3056
      8 C          63.7348   90.5587   14.4787 C.2     1  UNL1        0.2269
      9 O          63.7833   89.0681   14.6391 O.2     1  UNL1       -0.2747
     10 H          62.9862   92.1425   13.2031 H       1  UNL1        0.1494
     11 C          64.4033   91.4439   15.4885 C.3     1  UNL1        0.1113
     12 C          65.8303   91.8621   15.2914 C.ar    1  UNL1       -0.0131
     13 C          66.5362   92.6460   16.3577 C.ar    1  UNL1       -0.0038
     14 C          67.9633   93.0642   16.1605 C.ar    1  UNL1       -0.0003
     15 C          68.6842   92.6984   14.8971 C.ar    1  UNL1       -0.0000
     16 C          67.9783   91.9145   13.8308 C.ar    1  UNL1       -0.0003
     17 C          66.5513   91.4963   14.0279 C.ar    1  UNL1       -0.0038
     18 C          60.3440   87.6235    9.2695 C.3     1  UNL1        0.0992
     19 C          62.8846   84.5993    8.8831 C.ar    1  UNL1        0.1452
     20 C          62.5873   84.1567    7.4810 C.ar    1  UNL1        0.0375
     21 C          61.5423   84.8697    6.6752 C.ar    1  UNL1        0.0029
     22 C          60.7945   86.0253    7.2713 C.ar    1  UNL1       -0.0027
     23 C          61.0918   86.4679    8.6733 C.ar    1  UNL1       -0.0031
     24 C          62.1369   85.7549    9.4793 C.ar    1  UNL1        0.0346
     25 O          63.9297   83.8863    9.6890 O.3     1  UNL1       -0.4504
     26 C          63.3114   83.4498   12.1744 C.ar    1  UNL1        0.1730
     27 C          62.9022   82.5041   13.2644 C.ar    1  UNL1        0.0401
     28 C          62.7019   81.0493   12.9591 C.ar    1  UNL1        0.0033
     29 C          62.9109   80.5400   11.5638 C.ar    1  UNL1        0.0033
     30 C          63.3201   81.4857   10.4738 C.ar    1  UNL1        0.0406
     31 C          63.5204   82.9406   10.7791 C.ar    1  UNL1        0.1789
     32 C          63.8725   85.3365   13.8701 C.3     1  UNL1        0.2526
     33 O          63.5117   84.9047   12.4797 O.3     1  UNL1       -0.4684
@<TRIPOS>BOND
     1    32    33    1
     2    33    26    1
     3    26    27   ar
     4    27    28   ar
     5    28    29   ar
     6    29    30   ar
     7    30    31   ar
     8    31    25    1
     9    25    19    1
    10    19    20   ar
    11    20    21   ar
    12    21    22   ar
    13    22    23   ar
    14    23    18    1
    15    18     1    1
    16     1     2    1
    17     2     3    1
    18     3     4    1
    19     4     7    1
    20     7     8   am
    21     8     9    2
    22     8    11    1
    23    11    12    1
    24    12    13   ar
    25    13    14   ar
    26    14    15   ar
    27    15    16   ar
    28    16    17   ar
    29     4     5    1
    30     5     6    1
    31    23    24   ar
    32    31    26   ar
    33    24    19   ar
    34     6     1    1
    35    17    12   ar
    36     7    10    1
@<TRIPOS>MOLECULE
*****
 33 36 0 0 0
SMALL
GASTEIGER

@<TRIPOS>ATOM
      1 N          62.7764   89.7431   12.6377 N.3     1  UNL1       -0.2688
      2 C          61.3282   89.3704   12.7551 C.3     1  UNL1        0.0741
      3 C          60.4315   89.4582   11.5558 C.3     1  UNL1        0.0369
      4 C          60.9831   89.9187   10.2391 C.3     1  UNL1        0.0743
      5 C          62.4313   90.2915   10.1218 C.3     1  UNL1        0.0369
      6 C          63.3279   90.2036   11.3210 C.3     1  UNL1        0.0741
      7 N          60.0864   90.0066    9.0399 N.am    1  UNL1       -0.3056
      8 C          59.8801   88.8035    8.1680 C.2     1  UNL1        0.2269
      9 O          60.5704   87.5127    8.4955 O.2     1  UNL1       -0.2747
     10 H          59.6334   90.8538    8.8249 H       1  UNL1        0.1494
     11 C          58.9835   88.8913    6.9687 C.3     1  UNL1        0.1113
     12 C          59.1204   90.0387    6.0122 C.ar    1  UNL1       -0.0131
     13 C          60.4726   90.4192    5.4860 C.ar    1  UNL1       -0.0038
     14 C          60.6094   91.5666    4.5295 C.ar    1  UNL1       -0.0003
     15 C          59.3942   92.3334    4.0993 C.ar    1  UNL1       -0.0000
     16 C          58.0421   91.9529    4.6256 C.ar    1  UNL1       -0.0003
     17 C          57.9051   90.8056    5.5820 C.ar    1  UNL1       -0.0038
     18 C          63.6730   89.6553   13.8370 C.3     1  UNL1        0.0992
     19 C          64.2416   85.8539   14.8250 C.ar    1  UNL1        0.1452
     20 C          63.8195   85.8689   16.2644 C.ar    1  UNL1        0.0375
     21 C          63.3487   87.1461   16.8945 C.ar    1  UNL1        0.0029
     22 C          63.2998   88.4082   16.0854 C.ar    1  UNL1       -0.0027
     23 C          63.7218   88.3932   14.6461 C.ar    1  UNL1       -0.0031
     24 C          64.1927   87.1160   14.0159 C.ar    1  UNL1        0.0346
     25 O          64.7125   84.5767   14.1948 O.3     1  UNL1       -0.4504
     26 C          63.7141   82.8453   12.5349 C.ar    1  UNL1        0.1730
     27 C          62.7328   81.7519   12.2325 C.ar    1  UNL1        0.0401
     28 C          61.7685   81.2965   13.2874 C.ar    1  UNL1        0.0033
     29 C          61.7856   81.9346   14.6448 C.ar    1  UNL1        0.0033
     30 C          62.7669   83.0279   14.9473 C.ar    1  UNL1        0.0406
     31 C          63.7311   83.4833   13.8923 C.ar    1  UNL1        0.1789
     32 C          64.2265   83.4272   10.0553 C.3     1  UNL1        0.2526
     33 O          64.6783   83.3006   11.4800 O.3     1  UNL1       -0.4684
@<TRIPOS>BOND
     1    32    33    1
     2    33    26    1
     3    26    27   ar
     4    27    28   ar
     5    28    29   ar
     6    29    30   ar
     7    30    31   ar
     8    31    25    1
     9    25    19    1
    10    19    20   ar
    11    20    21   ar
    12    21    22   ar
    13    22    23   ar
    14    23    18    1
    15    18     1    1
    16     1     2    1
    17     2     3    1
    18     3     4    1
    19     4     7    1
    20     7     8   am
    21     8     9    2
    22     8    11    1
    23    11    12    1
    24    12    13   ar
    25    13    14   ar
    26    14    15   ar
    27    15    16   ar
    28    16    17   ar
    29     4     5    1
    30     5     6    1
    31    23    24   ar
    32    31    26   ar
    33    24    19   ar
    34     6     1    1
    35    17    12   ar
    36     7    10    1
@<TRIPOS>MOLECULE
*****
 33 36 0 0 0
SMALL
GASTEIGER

@<TRIPOS>ATOM
      1 N          62.8183   89.9338   12.5804 N.3     1  UNL1       -0.2688
      2 C          61.3430   89.7423   12.7716 C.3     1  UNL1        0.0741
      3 C          60.4235   89.7684   11.5867 C.3     1  UNL1        0.0369
      4 C          60.9795   89.9858   10.2106 C.3     1  UNL1        0.0743
      5 C          62.4550   90.1773   10.0195 C.3     1  UNL1        0.0369
      6 C          63.3743   90.1513   11.2044 C.3     1  UNL1        0.0741
      7 N          60.0601   90.0119    9.0257 N.am    1  UNL1       -0.3056
      8 C          59.9218   88.7969    8.1570 C.2     1  UNL1        0.2269
      9 O          60.7029   87.5560    8.4731 O.2     1  UNL1       -0.2747
     10 H          59.5475   90.8264    8.8182 H       1  UNL1        0.1494
     11 C          59.0024   88.8229    6.9720 C.3     1  UNL1        0.1113
     12 C          59.0332   89.9851    6.0242 C.ar    1  UNL1       -0.0131
     13 C          60.3417   90.4689    5.4730 C.ar    1  UNL1       -0.0038
     14 C          60.3724   91.6311    4.5251 C.ar    1  UNL1       -0.0003
     15 C          59.0947   92.3095    4.1285 C.ar    1  UNL1       -0.0000
     16 C          57.7863   91.8256    4.6797 C.ar    1  UNL1       -0.0003
     17 C          57.7555   90.6635    5.6275 C.ar    1  UNL1       -0.0038
     18 C          63.7377   89.9078   13.7653 C.3     1  UNL1        0.0992
     19 C          65.8537   93.2179   13.2035 C.ar    1  UNL1        0.1452
     20 C          66.4955   93.3760   14.5501 C.ar    1  UNL1        0.0375
     21 C          66.2180   92.3781   15.6350 C.ar    1  UNL1        0.0029
     22 C          65.2988   91.2220   15.3734 C.ar    1  UNL1       -0.0027
     23 C          64.6570   91.0639   14.0269 C.ar    1  UNL1       -0.0031
     24 C          64.9344   92.0618   12.9419 C.ar    1  UNL1        0.0346
     25 O          66.1312   94.2159   12.1186 O.3     1  UNL1       -0.4504
     26 C          67.1875   94.8039    9.8189 C.ar    1  UNL1        0.1730
     27 C          67.9654   94.3938    8.6038 C.ar    1  UNL1        0.0401
     28 C          68.4651   92.9856    8.4732 C.ar    1  UNL1        0.0033
     29 C          68.1869   91.9874    9.5577 C.ar    1  UNL1        0.0033
     30 C          67.4089   92.3975   10.7728 C.ar    1  UNL1        0.0406
     31 C          66.9092   93.8058   10.9034 C.ar    1  UNL1        0.1789
     32 C          65.6556   96.7334    8.9941 C.3     1  UNL1        0.2526
     33 O          66.6878   96.2122    9.9495 O.3     1  UNL1       -0.4684
@<TRIPOS>BOND
     1    32    33    1
     2    33    26    1
     3    26    27   ar
     4    27    28   ar
     5    28    29   ar
     6    29    30   ar
     7    30    31   ar
     8    31    25    1
     9    25    19    1
    10    19    20   ar
    11    20    21   ar
    12    21    22   ar
    13    22    23   ar
    14    23    18    1
    15    18     1    1
    16     1     2    1
    17     2     3    1
    18     3     4    1
    19     4     7    1
    20     7     8   am
    21     8     9    2
    22     8    11    1
    23    11    12    1
    24    12    13   ar
    25    13    14   ar
    26    14    15   ar
    27    15    16   ar
    28    16    17   ar
    29     4     5    1
    30     5     6    1
    31    23    24   ar
    32    31    26   ar
    33    24    19   ar
    34     6     1    1
    35    17    12   ar
    36     7    10    1
@<TRIPOS>MOLECULE
*****
 33 36 0 0 0
SMALL
GASTEIGER

@<TRIPOS>ATOM
      1 N          63.1345   87.5846   12.4678 N.3     1  UNL1       -0.2688
      2 C          62.6093   86.2863   11.9307 C.3     1  UNL1        0.0741
      3 C          61.8124   86.2678   10.6599 C.3     1  UNL1        0.0369
      4 C          61.5409   87.5477    9.9263 C.3     1  UNL1        0.0743
      5 C          62.0661   88.8460   10.4635 C.3     1  UNL1        0.0369
      6 C          62.8629   88.8645   11.7342 C.3     1  UNL1        0.0741
      7 N          60.7441   87.5292    8.6556 N.am    1  UNL1       -0.3056
      8 C          59.8946   88.7089    8.2859 C.2     1  UNL1        0.2269
      9 O          59.8419   89.9070    9.1869 O.2     1  UNL1       -0.2747
     10 H          60.7786   86.7429    8.0643 H       1  UNL1        0.1494
     11 C          59.0977   88.6905    7.0151 C.3     1  UNL1        0.1113
     12 C          59.1179   89.8787    6.1000 C.ar    1  UNL1       -0.0131
     13 C          57.8351   90.5631    5.7309 C.ar    1  UNL1       -0.0038
     14 C          57.8554   91.7514    4.8157 C.ar    1  UNL1       -0.0003
     15 C          59.1583   92.2553    4.2695 C.ar    1  UNL1       -0.0000
     16 C          60.4411   91.5709    4.6385 C.ar    1  UNL1       -0.0003
     17 C          60.4209   90.3827    5.5537 C.ar    1  UNL1       -0.0038
     18 C          63.9313   87.6031   13.7385 C.3     1  UNL1        0.0992
     19 C          64.6716   91.3327   14.8752 C.ar    1  UNL1        0.1452
     20 C          64.0738   91.3336   16.2510 C.ar    1  UNL1        0.0375
     21 C          63.4285   90.0911   16.7892 C.ar    1  UNL1        0.0029
     22 C          63.3811   88.8476   15.9517 C.ar    1  UNL1       -0.0027
     23 C          63.9788   88.8466   14.5760 C.ar    1  UNL1       -0.0031
     24 C          64.6241   90.0892   14.0377 C.ar    1  UNL1        0.0346
     25 O          65.3169   92.5752   14.3370 O.3     1  UNL1       -0.4504
     26 C          67.4964   92.0708   13.0158 C.ar    1  UNL1        0.1730
     27 C          68.2475   92.0241   11.7183 C.ar    1  UNL1        0.0401
     28 C          67.5704   92.4351   10.4445 C.ar    1  UNL1        0.0033
     29 C          66.1422   92.8927   10.4681 C.ar    1  UNL1        0.0033
     30 C          65.3910   92.9394   11.7656 C.ar    1  UNL1        0.0406
     31 C          66.0681   92.5285   13.0395 C.ar    1  UNL1        0.1789
     32 C          68.7263   92.7027   15.2153 C.3     1  UNL1        0.2526
     33 O          68.1735   91.6599   14.2897 O.3     1  UNL1       -0.4684
@<TRIPOS>BOND
     1    32    33    1
     2    33    26    1
     3    26    27   ar
     4    27    28   ar
     5    28    29   ar
     6    29    30   ar
     7    30    31   ar
     8    31    25    1
     9    25    19    1
    10    19    20   ar
    11    20    21   ar
    12    21    22   ar
    13    22    23   ar
    14    23    18    1
    15    18     1    1
    16     1     2    1
    17     2     3    1
    18     3     4    1
    19     4     7    1
    20     7     8   am
    21     8     9    2
    22     8    11    1
    23    11    12    1
    24    12    13   ar
    25    13    14   ar
    26    14    15   ar
    27    15    16   ar
    28    16    17   ar
    29     4     5    1
    30     5     6    1
    31    23    24   ar
    32    31    26   ar
    33    24    19   ar
    34     6     1    1
    35    17    12   ar
    36     7    10    1
@<TRIPOS>MOLECULE
*****
 33 36 0 0 0
SMALL
GASTEIGER

@<TRIPOS>ATOM
      1 N          61.6469   88.6062   10.6179 N.3     1  UNL1       -0.2688
      2 C          61.6292   90.0327   10.1545 C.3     1  UNL1        0.0741
      3 C          62.4793   91.0567   10.8464 C.3     1  UNL1        0.0369
      4 C          63.3471   90.6542   12.0018 C.3     1  UNL1        0.0743
      5 C          63.3648   89.2277   12.4652 C.3     1  UNL1        0.0369
      6 C          62.5147   88.2037   11.7733 C.3     1  UNL1        0.0741
      7 N          64.1972   91.6782   12.6937 N.am    1  UNL1       -0.3056
      8 C          65.2750   92.3945   11.9353 C.2     1  UNL1        0.2269
      9 O          65.5026   92.0869   10.4849 O.2     1  UNL1       -0.2747
     10 H          64.0478   91.8801   13.6456 H       1  UNL1        0.1494
     11 C          66.1251   93.4185   12.6272 C.3     1  UNL1        0.1113
     12 C          66.8829   93.0497   13.8680 C.ar    1  UNL1       -0.0131
     13 C          68.3236   92.6428   13.7739 C.ar    1  UNL1       -0.0038
     14 C          69.0813   92.2739   15.0149 C.ar    1  UNL1       -0.0003
     15 C          68.3983   92.3119   16.3498 C.ar    1  UNL1       -0.0000
     16 C          66.9576   92.7188   16.4439 C.ar    1  UNL1       -0.0003
     17 C          66.1999   93.0877   15.2030 C.ar    1  UNL1       -0.0038
     18 C          60.7968   87.5823    9.9260 C.3     1  UNL1        0.0992
     19 C          63.0984   84.4547    9.1069 C.ar    1  UNL1        0.1452
     20 C          62.7323   84.2008    7.6745 C.ar    1  UNL1        0.0375
     21 C          61.7211   85.0740    6.9927 C.ar    1  UNL1        0.0029
     22 C          61.0759   86.2012    7.7432 C.ar    1  UNL1       -0.0027
     23 C          61.4420   86.4551    9.1755 C.ar    1  UNL1       -0.0031
     24 C          62.4532   85.5818    9.8574 C.ar    1  UNL1        0.0346
     25 O          64.1096   83.5814    9.7886 O.3     1  UNL1       -0.4504
     26 C          63.2875   81.5223   11.1430 C.ar    1  UNL1        0.1730
     27 C          62.9584   80.8794   12.4577 C.ar    1  UNL1        0.0401
     28 C          63.1223   81.6525   13.7326 C.ar    1  UNL1        0.0033
     29 C          63.6153   83.0686   13.6928 C.ar    1  UNL1        0.0033
     30 C          63.9444   83.7115   12.3782 C.ar    1  UNL1        0.0406
     31 C          63.7805   82.9384   11.1033 C.ar    1  UNL1        0.1789
     32 C          62.7609   79.2945    9.9145 C.3     1  UNL1        0.2526
     33 O          63.1236   80.7492    9.8681 O.3     1  UNL1       -0.4684
@<TRIPOS>BOND
     1    32    33    1
     2    33    26    1
     3    26    27   ar
     4    27    28   ar
     5    28    29   ar
     6    29    30   ar
     7    30    31   ar
     8    31    25    1
     9    25    19    1
    10    19    20   ar
    11    20    21   ar
    12    21    22   ar
    13    22    23   ar
    14    23    18    1
    15    18     1    1
    16     1     2    1
    17     2     3    1
    18     3     4    1
    19     4     7    1
    20     7     8   am
    21     8     9    2
    22     8    11    1
    23    11    12    1
    24    12    13   ar
    25    13    14   ar
    26    14    15   ar
    27    15    16   ar
    28    16    17   ar
    29     4     5    1
    30     5     6    1
    31    23    24   ar
    32    31    26   ar
    33    24    19   ar
    34     6     1    1
    35    17    12   ar
    36     7    10    1
@<TRIPOS>MOLECULE
*****
 33 36 0 0 0
SMALL
GASTEIGER

@<TRIPOS>ATOM
      1 N          62.1878   88.6630   10.6681 N.3     1  UNL1       -0.2688
      2 C          62.2734   90.0464   10.0948 C.3     1  UNL1        0.0741
      3 C          62.9769   91.1313   10.8553 C.3     1  UNL1        0.0369
      4 C          63.5948   90.8326   12.1891 C.3     1  UNL1        0.0743
      5 C          63.5092   89.4491   12.7624 C.3     1  UNL1        0.0369
      6 C          62.8058   88.3643   12.0019 C.3     1  UNL1        0.0741
      7 N          64.2983   91.9174   12.9495 N.am    1  UNL1       -0.3056
      8 C          65.5002   92.5907   12.3564 C.2     1  UNL1        0.2269
      9 O          65.9987   92.1793   11.0027 O.2     1  UNL1       -0.2747
     10 H          63.9711   92.1874   13.8380 H       1  UNL1        0.1494
     11 C          66.2038   93.6756   13.1168 C.3     1  UNL1        0.1113
     12 C          67.1568   93.3215   14.2197 C.ar    1  UNL1       -0.0131
     13 C          67.4539   91.8824   14.5209 C.ar    1  UNL1       -0.0038
     14 C          68.4070   91.5283   15.6239 C.ar    1  UNL1       -0.0003
     15 C          69.0628   92.6133   16.4255 C.ar    1  UNL1       -0.0000
     16 C          68.7657   94.0524   16.1243 C.ar    1  UNL1       -0.0003
     17 C          67.8127   94.4065   15.0214 C.ar    1  UNL1       -0.0038
     18 C          61.4843   87.5782    9.9077 C.3     1  UNL1        0.0992
     19 C          63.0762   84.0583   10.8169 C.ar    1  UNL1        0.1452
     20 C          63.4115   83.5375    9.4507 C.ar    1  UNL1        0.0375
     21 C          63.1044   84.3636    8.2370 C.ar    1  UNL1        0.0029
     22 C          62.4621   85.7105    8.3893 C.ar    1  UNL1       -0.0027
     23 C          62.1267   86.2313    9.7554 C.ar    1  UNL1       -0.0031
     24 C          62.4338   85.4052   10.9692 C.ar    1  UNL1        0.0346
     25 O          63.3832   83.2323   12.0307 O.3     1  UNL1       -0.4504
     26 C          62.5034   83.3563   14.4721 C.ar    1  UNL1        0.1730
     27 C          62.5228   83.9954   15.8290 C.ar    1  UNL1        0.0401
     28 C          63.4413   85.1496   16.1014 C.ar    1  UNL1        0.0033
     29 C          64.3404   85.6647   15.0169 C.ar    1  UNL1        0.0033
     30 C          64.3211   85.0256   13.6600 C.ar    1  UNL1        0.0406
     31 C          63.4026   83.8714   13.3876 C.ar    1  UNL1        0.1789
     32 C          62.1401   80.8138   14.0799 C.3     1  UNL1        0.2526
     33 O          61.5849   82.2021   14.1998 O.3     1  UNL1       -0.4684
@<TRIPOS>BOND
     1    32    33    1
     2    33    26    1
     3    26    27   ar
     4    27    28   ar
     5    28    29   ar
     6    29    30   ar
     7    30    31   ar
     8    31    25    1
     9    25    19    1
    10    19    20   ar
    11    20    21   ar
    12    21    22   ar
    13    22    23   ar
    14    23    18    1
    15    18     1    1
    16     1     2    1
    17     2     3    1
    18     3     4    1
    19     4     7    1
    20     7     8   am
    21     8     9    2
    22     8    11    1
    23    11    12    1
    24    12    13   ar
    25    13    14   ar
    26    14    15   ar
    27    15    16   ar
    28    16    17   ar
    29     4     5    1
    30     5     6    1
    31    23    24   ar
    32    31    26   ar
    33    24    19   ar
    34     6     1    1
    35    17    12   ar
    36     7    10    1
@<TRIPOS>MOLECULE
*****
 33 36 0 0 0
SMALL
GASTEIGER

@<TRIPOS>ATOM
      1 N          62.7494   84.8312    9.9047 N.3     1  UNL1       -0.2688
      2 C          61.6475   85.5841   10.5893 C.3     1  UNL1        0.0741
      3 C          60.6379   86.3396    9.7768 C.3     1  UNL1        0.0369
      4 C          60.7303   86.3421    8.2797 C.3     1  UNL1        0.0743
      5 C          61.8323   85.5891    7.5950 C.3     1  UNL1        0.0369
      6 C          62.8418   84.8337    8.4075 C.3     1  UNL1        0.0741
      7 N          59.7208   87.0975    7.4672 N.am    1  UNL1       -0.3056
      8 C          59.5835   88.5819    7.6334 C.2     1  UNL1        0.2269
      9 O          60.4557   89.3109    8.6121 O.2     1  UNL1       -0.2747
     10 H          59.1484   86.6190    6.8248 H       1  UNL1        0.1494
     11 C          58.5739   89.3374    6.8209 C.3     1  UNL1        0.1113
     12 C          59.0289   90.3550    5.8171 C.ar    1  UNL1       -0.0131
     13 C          58.0301   91.2660    5.1672 C.ar    1  UNL1       -0.0038
     14 C          58.4851   92.2836    4.1634 C.ar    1  UNL1       -0.0003
     15 C          59.9388   92.3901    3.8096 C.ar    1  UNL1       -0.0000
     16 C          60.9376   91.4791    4.4596 C.ar    1  UNL1       -0.0003
     17 C          60.4827   90.4615    5.4633 C.ar    1  UNL1       -0.0038
     18 C          63.7589   84.0758   10.7172 C.3     1  UNL1        0.0992
     19 C          63.6294   84.1866   14.6821 C.ar    1  UNL1        0.1452
     20 C          62.8329   82.9495   14.9744 C.ar    1  UNL1        0.0375
     21 C          62.3452   82.0879   13.8476 C.ar    1  UNL1        0.0029
     22 C          62.6539   82.4633   12.4285 C.ar    1  UNL1       -0.0027
     23 C          63.4503   83.7004   12.1362 C.ar    1  UNL1       -0.0031
     24 C          63.9380   84.5620   13.2631 C.ar    1  UNL1        0.0346
     25 O          64.1171   85.0482   15.8089 O.3     1  UNL1       -0.4504
     26 C          63.1705   87.2404   16.8327 C.ar    1  UNL1        0.1730
     27 C          62.9860   88.7278   16.7736 C.ar    1  UNL1        0.0401
     28 C          63.5635   89.5105   15.6317 C.ar    1  UNL1        0.0033
     29 C          64.3256   88.8057   14.5489 C.ar    1  UNL1        0.0033
     30 C          64.5101   87.3183   14.6080 C.ar    1  UNL1        0.0406
     31 C          63.9326   86.5357   15.7499 C.ar    1  UNL1        0.1789
     32 C          62.6276   87.0220   19.3640 C.3     1  UNL1        0.2526
     33 O          62.5930   86.4578   17.9746 O.3     1  UNL1       -0.4684
@<TRIPOS>BOND
     1    32    33    1
     2    33    26    1
     3    26    27   ar
     4    27    28   ar
     5    28    29   ar
     6    29    30   ar
     7    30    31   ar
     8    31    25    1
     9    25    19    1
    10    19    20   ar
    11    20    21   ar
    12    21    22   ar
    13    22    23   ar
    14    23    18    1
    15    18     1    1
    16     1     2    1
    17     2     3    1
    18     3     4    1
    19     4     7    1
    20     7     8   am
    21     8     9    2
    22     8    11    1
    23    11    12    1
    24    12    13   ar
    25    13    14   ar
    26    14    15   ar
    27    15    16   ar
    28    16    17   ar
    29     4     5    1
    30     5     6    1
    31    23    24   ar
    32    31    26   ar
    33    24    19   ar
    34     6     1    1
    35    17    12   ar
    36     7    10    1
