@<TRIPOS>MOLECULE
*****
 46 48 0 0 0
SMALL
GASTEIGER

@<TRIPOS>ATOM
      1 C          62.1385   89.3337   11.8367 C.2     1  UNL1        0.2403
      2 O          60.7688   89.6936   12.3311 O.2     1  UNL1       -0.2733
      3 N          62.3159   88.7857   10.4516 N.am    1  UNL1       -0.3043
      4 H          63.2148   88.5495   10.1271 H       1  UNL1        0.1494
      5 C          61.1236   88.5975    9.5611 C.3     1  UNL1        0.0774
      6 C          60.5366   89.7718    8.8355 C.3     1  UNL1        0.0387
      7 C          59.3562   89.5803    7.9300 C.3     1  UNL1        0.0894
      8 N          59.5528   89.5205    6.4441 N.3     1  UNL1       -0.2274
      9 H          58.6633   89.2257    6.0411 H       1  UNL1        0.1451
     10 N          59.9827   90.7465    5.6944 N.am    1  UNL1       -0.2155
     11 C          58.9599   91.6050    5.0112 C.2     1  UNL1        0.4153
     12 O          57.5071   91.2375    5.0777 O.2     1  UNL1       -0.2251
     13 H          60.9362   90.9877    5.6508 H       1  UNL1        0.1724
     14 O          59.3898   92.8310    4.2616 O.3     1  UNL1       -0.4282
     15 C          59.7763   92.7290    2.8158 C.3     1  UNL1        0.2447
     16 C          61.1788   93.0476    2.3901 C.ar    1  UNL1        0.0714
     17 C          61.6128   94.2597    1.6203 C.ar    1  UNL1        0.1053
     18 N          63.0959   94.1713    1.4139 N.ar    1  UNL1       -0.2350
     19 C          63.5786   92.9045    2.0561 C.ar    1  UNL1        0.1343
     20 S          62.3938   92.2101    2.6594 S.2     1  UNL1       -0.0652
     21 C          60.5182   87.2350    9.3963 C.3     1  UNL1        0.0459
     22 C          61.1398   86.2471    8.4540 C.ar    1  UNL1       -0.0205
     23 C          62.5529   85.7924    8.6690 C.ar    1  UNL1       -0.0042
     24 C          63.1744   84.8046    7.7267 C.ar    1  UNL1       -0.0003
     25 C          62.3827   84.2714    6.5695 C.ar    1  UNL1       -0.0000
     26 C          60.9696   84.7261    6.3546 C.ar    1  UNL1       -0.0003
     27 C          60.3481   85.7140    7.2968 C.ar    1  UNL1       -0.0042
     28 C          63.3308   89.5219   12.7272 C.3     1  UNL1        0.1496
     29 N          63.5892   87.4213   16.0844 N.am    1  UNL1       -0.2567
     30 C          63.0767   87.4679   17.4933 C.3     1  UNL1        0.1168
     31 C          63.2037   88.4949   15.1102 C.2     1  UNL1        0.3046
     32 O          62.3058   89.6150   15.5451 O.2     1  UNL1       -0.2526
     33 N          63.7162   88.4483   13.7013 N.am    1  UNL1       -0.2824
     34 H          64.3056   87.7132   13.4159 H       1  UNL1        0.1514
     35 C          64.4871   86.3012   15.6495 C.3     1  UNL1        0.1413
     36 C          63.4789   83.3313   13.3629 C.ar    1  UNL1        0.0875
     37 N          64.3186   84.5420   13.6441 N.ar    1  UNL1       -0.2453
     38 C          63.9066   85.0925   14.9772 C.ar    1  UNL1        0.0858
     39 C          62.8123   84.2221   15.5200 C.ar    1  UNL1        0.0530
     40 S          62.5479   83.1336   14.5223 S.2     1  UNL1       -0.0705
     41 C          64.2698   82.9666   10.9151 C.3     1  UNL1        0.0069
     42 C          63.5565   82.4697   12.1375 C.3     1  UNL1        0.0465
     43 C          62.9207   81.1111   12.1345 C.3     1  UNL1        0.0069
     44 C          64.1376   90.7837   12.6436 C.3     1  UNL1        0.0270
     45 C          64.1070   91.6121   11.3934 C.3     1  UNL1        0.0022
     46 C          64.9751   91.2170   13.8101 C.3     1  UNL1        0.0022
@<TRIPOS>BOND
     1    41    42    1
     2    42    43    1
     3    42    36    1
     4    36    37   ar
     5    37    38   ar
     6    38    35    1
     7    35    29    1
     8    29    30    1
     9    29    31   am
    10    31    32    2
    11    31    33   am
    12    28    33    1
    13    28     1    1
    14     1     2    2
    15     1     3   am
    16     3     5    1
    17     5     6    1
    18     6     7    1
    19     7     8    1
    20     8    10    1
    21    10    11   am
    22    11    12    2
    23    11    14    1
    24    14    15    1
    25    15    16    1
    26    16    17   ar
    27    17    18   ar
    28    18    19   ar
    29    19    20   ar
    30     5    21    1
    31    21    22    1
    32    22    23   ar
    33    23    24   ar
    34    24    25   ar
    35    25    26   ar
    36    26    27   ar
    37    28    44    1
    38    44    45    1
    39    44    46    1
    40    38    39   ar
    41    39    40   ar
    42    40    36   ar
    43    20    16   ar
    44    27    22   ar
    45    33    34    1
    46     3     4    1
    47     8     9    1
    48    10    13    1
@<TRIPOS>MOLECULE
*****
 46 48 0 0 0
SMALL
GASTEIGER

@<TRIPOS>ATOM
      1 C          64.1354   86.4761   14.2081 C.2     1  UNL1        0.2403
      2 O          65.2422   85.5416   14.5975 O.2     1  UNL1       -0.2733
      3 N          63.2178   86.1212   13.0757 N.am    1  UNL1       -0.3043
      4 H          62.4913   86.7346   12.8201 H       1  UNL1        0.1494
      5 C          63.4071   84.8319   12.3328 C.3     1  UNL1        0.0774
      6 C          63.0283   84.7383   10.8844 C.3     1  UNL1        0.0387
      7 C          61.7443   85.3471   10.4041 C.3     1  UNL1        0.0894
      8 N          61.3234   86.6986   10.9002 N.3     1  UNL1       -0.2274
      9 H          61.9750   86.9562   11.6415 H       1  UNL1        0.1451
     10 N          61.2639   87.8602    9.9530 N.am    1  UNL1       -0.2155
     11 C          60.1844   87.9259    8.9137 C.2     1  UNL1        0.4153
     12 O          59.1643   86.8300    8.8215 O.2     1  UNL1       -0.2251
     13 H          61.9334   88.5795   10.0134 H       1  UNL1        0.1724
     14 O          60.1249   89.0874    7.9665 O.3     1  UNL1       -0.4282
     15 C          59.2024   89.0448    6.7844 C.3     1  UNL1        0.2447
     16 C          59.0910   90.2338    5.8767 C.ar    1  UNL1        0.0714
     17 C          57.8216   90.9365    5.4961 C.ar    1  UNL1        0.1053
     18 N          58.1754   92.0659    4.5745 N.ar    1  UNL1       -0.2350
     19 C          59.6635   92.0611    4.3855 C.ar    1  UNL1        0.1343
     20 S          60.2293   90.9289    5.1904 S.2     1  UNL1       -0.0652
     21 C          63.9751   83.6363   13.0383 C.3     1  UNL1        0.0459
     22 C          63.1344   82.4088   13.2295 C.ar    1  UNL1       -0.0205
     23 C          63.4461   81.1591   12.4607 C.ar    1  UNL1       -0.0042
     24 C          62.6055   79.9316   12.6519 C.ar    1  UNL1       -0.0003
     25 C          61.4531   79.9539   13.6119 C.ar    1  UNL1       -0.0000
     26 C          61.1414   81.2036   14.3807 C.ar    1  UNL1       -0.0003
     27 C          61.9821   82.4310   14.1895 C.ar    1  UNL1       -0.0042
     28 C          63.9460   87.7654   14.9510 C.3     1  UNL1        0.1496
     29 N          63.9131   90.8743   12.4845 N.am    1  UNL1       -0.2567
     30 C          63.1288   91.3826   11.3113 C.3     1  UNL1        0.1168
     31 C          63.5374   89.5740   13.1311 C.2     1  UNL1        0.3046
     32 O          62.3774   88.7821   12.6046 O.2     1  UNL1       -0.2526
     33 N          64.3218   89.0657   14.3043 N.am    1  UNL1       -0.2824
     34 H          65.0831   89.5855   14.6500 H       1  UNL1        0.1514
     35 C          65.0731   91.6663   13.0111 C.3     1  UNL1        0.1413
     36 C          67.0265   93.6270   10.2898 C.ar    1  UNL1        0.0875
     37 N          66.4793   92.3438   10.8412 N.ar    1  UNL1       -0.2453
     38 C          65.7693   92.6563   12.1250 C.ar    1  UNL1        0.0858
     39 C          65.8776   94.1326   12.3671 C.ar    1  UNL1        0.0530
     40 S          66.6546   94.7326   11.2330 S.2     1  UNL1       -0.0705
     41 C          68.7256   92.6805    8.5673 C.3     1  UNL1        0.0069
     42 C          67.8083   93.7781    9.0187 C.3     1  UNL1        0.0465
     43 C          67.6728   95.0269    8.1988 C.3     1  UNL1        0.0069
     44 C          63.3811   87.7544   16.3404 C.3     1  UNL1        0.0270
     45 C          63.0833   86.4501   17.0187 C.3     1  UNL1        0.0022
     46 C          63.1139   89.0477   17.0516 C.3     1  UNL1        0.0022
@<TRIPOS>BOND
     1    41    42    1
     2    42    43    1
     3    42    36    1
     4    36    37   ar
     5    37    38   ar
     6    38    35    1
     7    35    29    1
     8    29    30    1
     9    29    31   am
    10    31    32    2
    11    31    33   am
    12    28    33    1
    13    28     1    1
    14     1     2    2
    15     1     3   am
    16     3     5    1
    17     5     6    1
    18     6     7    1
    19     7     8    1
    20     8    10    1
    21    10    11   am
    22    11    12    2
    23    11    14    1
    24    14    15    1
    25    15    16    1
    26    16    17   ar
    27    17    18   ar
    28    18    19   ar
    29    19    20   ar
    30     5    21    1
    31    21    22    1
    32    22    23   ar
    33    23    24   ar
    34    24    25   ar
    35    25    26   ar
    36    26    27   ar
    37    28    44    1
    38    44    45    1
    39    44    46    1
    40    38    39   ar
    41    39    40   ar
    42    40    36   ar
    43    20    16   ar
    44    27    22   ar
    45    33    34    1
    46     3     4    1
    47     8     9    1
    48    10    13    1
@<TRIPOS>MOLECULE
*****
 46 48 0 0 0
SMALL
GASTEIGER

@<TRIPOS>ATOM
      1 C          60.8862   88.0258   11.1489 C.2     1  UNL1        0.2403
      2 O          60.6962   86.6584   11.7355 O.2     1  UNL1       -0.2733
      3 N          61.3042   88.1757    9.7161 N.am    1  UNL1       -0.3043
      4 H          61.4290   89.0731    9.3310 H       1  UNL1        0.1494
      5 C          61.5323   86.9582    8.8700 C.3     1  UNL1        0.0774
      6 C          60.4320   86.4369    7.9939 C.3     1  UNL1        0.0387
      7 C          59.0342   86.9563    8.1562 C.3     1  UNL1        0.0894
      8 N          58.5720   88.1313    7.3464 N.3     1  UNL1       -0.2274
      9 H          58.0396   88.7317    7.9761 H       1  UNL1        0.1451
     10 N          59.5750   89.0081    6.6569 N.am    1  UNL1       -0.2155
     11 C          59.1128   90.1840    5.8484 C.2     1  UNL1        0.4153
     12 O          57.6478   90.4832    5.7294 O.2     1  UNL1       -0.2251
     13 H          60.5365   88.8118    6.7350 H       1  UNL1        0.1724
     14 O          60.1158   91.0607    5.1590 O.3     1  UNL1       -0.4282
     15 C          59.6514   92.1936    4.2923 C.3     1  UNL1        0.2447
     16 C          60.4489   92.5903    3.0854 C.ar    1  UNL1        0.0714
     17 C          61.9109   92.3326    2.8710 C.ar    1  UNL1        0.1053
     18 N          62.2900   92.8974    1.5342 N.ar    1  UNL1       -0.2350
     19 C          61.0622   93.5042    0.9223 C.ar    1  UNL1        0.1343
     20 S          59.9244   93.3145    1.8810 S.2     1  UNL1       -0.0652
     21 C          62.8606   86.2621    8.9001 C.3     1  UNL1        0.0459
     22 C          63.0628   85.0701    9.7881 C.ar    1  UNL1       -0.0205
     23 C          63.7773   83.8588    9.2665 C.ar    1  UNL1       -0.0042
     24 C          63.9795   82.6670   10.1545 C.ar    1  UNL1       -0.0003
     25 C          63.4670   82.6864   11.5641 C.ar    1  UNL1       -0.0000
     26 C          62.7525   83.8977   12.0857 C.ar    1  UNL1       -0.0003
     27 C          62.5503   85.0895   11.1977 C.ar    1  UNL1       -0.0042
     28 C          60.6581   89.2432   11.9949 C.3     1  UNL1        0.1496
     29 N          64.0377   91.1931   12.7205 N.am    1  UNL1       -0.2567
     30 C          65.1263   91.8955   11.9644 C.3     1  UNL1        0.1168
     31 C          62.8922   90.5694   11.9797 C.2     1  UNL1        0.3046
     32 O          62.8353   90.6479   10.4828 O.2     1  UNL1       -0.2526
     33 N          61.8036   89.8670   12.7358 N.am    1  UNL1       -0.2824
     34 H          61.8409   89.8154   13.7182 H       1  UNL1        0.1514
     35 C          64.0946   91.1146   14.2174 C.3     1  UNL1        0.1413
     36 C          63.8687   87.4237   15.3973 C.ar    1  UNL1        0.0875
     37 N          64.2767   88.4530   14.3853 N.ar    1  UNL1       -0.2453
     38 C          63.8773   89.8010   14.9083 C.ar    1  UNL1        0.0858
     39 C          63.2224   89.6048   16.2434 C.ar    1  UNL1        0.0530
     40 S          63.2171   88.1356   16.5457 S.2     1  UNL1       -0.0705
     41 C          63.0590   84.9964   15.8474 C.3     1  UNL1        0.0069
     42 C          64.0759   85.9427   15.2812 C.3     1  UNL1        0.0465
     43 C          65.3000   85.4078   14.5990 C.3     1  UNL1        0.0069
     44 C          59.2847   89.8369   12.1001 C.3     1  UNL1        0.0270
     45 C          58.9927   91.1676   11.4724 C.3     1  UNL1        0.0022
     46 C          58.2032   89.0999   12.8329 C.3     1  UNL1        0.0022
@<TRIPOS>BOND
     1    41    42    1
     2    42    43    1
     3    42    36    1
     4    36    37   ar
     5    37    38   ar
     6    38    35    1
     7    35    29    1
     8    29    30    1
     9    29    31   am
    10    31    32    2
    11    31    33   am
    12    28    33    1
    13    28     1    1
    14     1     2    2
    15     1     3   am
    16     3     5    1
    17     5     6    1
    18     6     7    1
    19     7     8    1
    20     8    10    1
    21    10    11   am
    22    11    12    2
    23    11    14    1
    24    14    15    1
    25    15    16    1
    26    16    17   ar
    27    17    18   ar
    28    18    19   ar
    29    19    20   ar
    30     5    21    1
    31    21    22    1
    32    22    23   ar
    33    23    24   ar
    34    24    25   ar
    35    25    26   ar
    36    26    27   ar
    37    28    44    1
    38    44    45    1
    39    44    46    1
    40    38    39   ar
    41    39    40   ar
    42    40    36   ar
    43    20    16   ar
    44    27    22   ar
    45    33    34    1
    46     3     4    1
    47     8     9    1
    48    10    13    1
@<TRIPOS>MOLECULE
*****
 46 48 0 0 0
SMALL
GASTEIGER

@<TRIPOS>ATOM
      1 C          63.1276   87.2797   12.8232 C.2     1  UNL1        0.2403
      2 O          62.6397   85.9052   12.4731 O.2     1  UNL1       -0.2733
      3 N          62.7017   88.4591   11.9998 N.am    1  UNL1       -0.3043
      4 H          63.0219   89.3613   12.2296 H       1  UNL1        0.1494
      5 C          61.7879   88.2638   10.8264 C.3     1  UNL1        0.0774
      6 C          61.5095   89.4058    9.8945 C.3     1  UNL1        0.0387
      7 C          60.0973   89.7301    9.5066 C.3     1  UNL1        0.0894
      8 N          59.5943   89.3731    8.1393 N.3     1  UNL1       -0.2274
      9 H          58.6260   89.6898    8.0899 H       1  UNL1        0.1451
     10 N          60.2877   89.9084    6.9216 N.am    1  UNL1       -0.2155
     11 C          59.4872   90.5231    5.8121 C.2     1  UNL1        0.4153
     12 O          57.9932   90.6026    5.9201 O.2     1  UNL1       -0.2251
     13 H          61.2683   89.8562    6.8507 H       1  UNL1        0.1724
     14 O          60.1806   91.0584    4.5945 O.3     1  UNL1       -0.4282
     15 C          59.7021   92.3288    3.9564 C.3     1  UNL1        0.2447
     16 C          60.4029   92.8704    2.7459 C.ar    1  UNL1        0.0714
     17 C          59.7714   93.6719    1.6464 C.ar    1  UNL1        0.1053
     18 N          60.8365   94.0024    0.6432 N.ar    1  UNL1       -0.2350
     19 C          62.1263   93.4052    1.1227 C.ar    1  UNL1        0.1343
     20 S          61.8583   92.7056    2.4222 S.2     1  UNL1       -0.0652
     21 C          61.1526   86.9267   10.5850 C.3     1  UNL1        0.0459
     22 C          61.3749   86.2147    9.2835 C.ar    1  UNL1       -0.0205
     23 C          60.2512   86.0838    8.2987 C.ar    1  UNL1       -0.0042
     24 C          60.4736   85.3718    6.9973 C.ar    1  UNL1       -0.0003
     25 C          61.8197   84.7907    6.6808 C.ar    1  UNL1       -0.0000
     26 C          62.9435   84.9216    7.6657 C.ar    1  UNL1       -0.0003
     27 C          62.7211   85.6336    8.9670 C.ar    1  UNL1       -0.0042
     28 C          64.0414   87.4750   13.9966 C.3     1  UNL1        0.1496
     29 N          64.7341   91.1369   15.3608 N.am    1  UNL1       -0.2567
     30 C          64.1051   92.1427   16.2788 C.3     1  UNL1        0.1168
     31 C          64.0733   89.8089   15.1377 C.2     1  UNL1        0.3046
     32 O          62.7835   89.4867   15.8326 O.2     1  UNL1       -0.2526
     33 N          64.7022   88.8030   14.2197 N.am    1  UNL1       -0.2824
     34 H          65.5487   89.0144   13.7636 H       1  UNL1        0.1514
     35 C          66.0238   91.4590   14.6660 C.3     1  UNL1        0.1413
     36 C          66.7357   92.7321   11.0690 C.ar    1  UNL1        0.0875
     37 N          67.2049   92.3640   12.4454 N.ar    1  UNL1       -0.2453
     38 C          66.0122   91.9173   13.2378 C.ar    1  UNL1        0.0858
     39 C          64.8058   92.0093   12.3512 C.ar    1  UNL1        0.0530
     40 S          65.2529   92.5129   11.0108 S.2     1  UNL1       -0.0705
     41 C          68.6821   92.3587    9.3892 C.3     1  UNL1        0.0069
     42 C          67.5978   93.2317    9.9478 C.3     1  UNL1        0.0465
     43 C          67.3755   94.6044    9.3853 C.3     1  UNL1        0.0069
     44 C          64.2943   86.3423   14.9469 C.3     1  UNL1        0.0270
     45 C          65.3033   85.2867   14.6039 C.3     1  UNL1        0.0022
     46 C          63.5382   86.2653   16.2400 C.3     1  UNL1        0.0022
@<TRIPOS>BOND
     1    41    42    1
     2    42    43    1
     3    42    36    1
     4    36    37   ar
     5    37    38   ar
     6    38    35    1
     7    35    29    1
     8    29    30    1
     9    29    31   am
    10    31    32    2
    11    31    33   am
    12    28    33    1
    13    28     1    1
    14     1     2    2
    15     1     3   am
    16     3     5    1
    17     5     6    1
    18     6     7    1
    19     7     8    1
    20     8    10    1
    21    10    11   am
    22    11    12    2
    23    11    14    1
    24    14    15    1
    25    15    16    1
    26    16    17   ar
    27    17    18   ar
    28    18    19   ar
    29    19    20   ar
    30     5    21    1
    31    21    22    1
    32    22    23   ar
    33    23    24   ar
    34    24    25   ar
    35    25    26   ar
    36    26    27   ar
    37    28    44    1
    38    44    45    1
    39    44    46    1
    40    38    39   ar
    41    39    40   ar
    42    40    36   ar
    43    20    16   ar
    44    27    22   ar
    45    33    34    1
    46     3     4    1
    47     8     9    1
    48    10    13    1
@<TRIPOS>MOLECULE
*****
 46 48 0 0 0
SMALL
GASTEIGER

@<TRIPOS>ATOM
      1 C          62.8367   85.6911   12.2267 C.2     1  UNL1        0.2403
      2 O          61.6508   85.1823   12.9915 O.2     1  UNL1       -0.2733
      3 N          64.1877   85.7315   12.8773 N.am    1  UNL1       -0.3043
      4 H          64.9660   86.0654   12.3754 H       1  UNL1        0.1494
      5 C          64.3527   85.2632   14.2927 C.3     1  UNL1        0.0774
      6 C          64.2253   86.2386   15.4252 C.3     1  UNL1        0.0387
      7 C          63.1676   86.0406   16.4701 C.3     1  UNL1        0.0894
      8 N          62.3708   87.2124   16.9623 N.3     1  UNL1       -0.2274
      9 H          61.8031   86.8765   17.7403 H       1  UNL1        0.1451
     10 N          63.0727   88.4489   17.4404 N.am    1  UNL1       -0.2155
     11 C          63.0998   89.6765   16.5789 C.2     1  UNL1        0.4153
     12 O          62.4252   89.6676   15.2392 O.2     1  UNL1       -0.2251
     13 H          63.5155   88.4547   18.3197 H       1  UNL1        0.1724
     14 O          63.8016   90.9129   17.0571 O.3     1  UNL1       -0.4282
     15 C          64.2831   91.9322   16.0675 C.3     1  UNL1        0.2447
     16 C          65.7303   91.9714   15.6751 C.ar    1  UNL1        0.0714
     17 C          66.4190   91.0130   14.7493 C.ar    1  UNL1        0.1053
     18 N          67.8572   91.4250   14.6416 N.ar    1  UNL1       -0.2350
     19 C          68.0575   92.6382   15.5009 C.ar    1  UNL1        0.1343
     20 S          66.7429   92.9758   16.1396 S.2     1  UNL1       -0.0652
     21 C          64.6453   83.8195   14.5758 C.3     1  UNL1        0.0459
     22 C          63.7101   82.7544   14.0846 C.ar    1  UNL1       -0.0205
     23 C          62.4165   82.5034   14.8012 C.ar    1  UNL1       -0.0042
     24 C          61.4815   81.4384   14.3100 C.ar    1  UNL1       -0.0003
     25 C          61.8399   80.6244   13.1022 C.ar    1  UNL1       -0.0000
     26 C          63.1335   80.8754   12.3855 C.ar    1  UNL1       -0.0003
     27 C          64.0686   81.9405   12.8767 C.ar    1  UNL1       -0.0042
     28 C          62.6716   86.1594   10.8113 C.3     1  UNL1        0.1496
     29 N          60.9101   89.7153   10.7593 N.am    1  UNL1       -0.2567
     30 C          59.6646   90.3714   11.2772 C.3     1  UNL1        0.1168
     31 C          61.1681   88.2655   11.0442 C.2     1  UNL1        0.3046
     32 O          60.1805   87.4716   11.8471 O.2     1  UNL1       -0.2526
     33 N          62.4136   87.6094   10.5263 N.am    1  UNL1       -0.2824
     34 H          63.0618   88.1304    9.9994 H       1  UNL1        0.1514
     35 C          61.8976   90.5092    9.9564 C.3     1  UNL1        0.1413
     36 C          65.0558   92.4909   11.0356 C.ar    1  UNL1        0.0875
     37 N          64.0610   92.0789    9.9913 N.ar    1  UNL1       -0.2453
     38 C          63.0668   91.1587   10.6355 C.ar    1  UNL1        0.0858
     39 C          63.4472   91.0020   12.0779 C.ar    1  UNL1        0.0530
     40 S          64.6764   91.8253   12.3253 S.2     1  UNL1       -0.0705
     41 C          67.3860   92.9629    9.9880 C.3     1  UNL1        0.0069
     42 C          66.2247   93.4075   10.8270 C.3     1  UNL1        0.0465
     43 C          66.2322   94.7686   11.4573 C.3     1  UNL1        0.0069
     44 C          62.7645   85.1779    9.6808 C.3     1  UNL1        0.0270
     45 C          62.1719   85.5145    8.3446 C.3     1  UNL1        0.0022
     46 C          63.4499   83.8597    9.8866 C.3     1  UNL1        0.0022
@<TRIPOS>BOND
     1    41    42    1
     2    42    43    1
     3    42    36    1
     4    36    37   ar
     5    37    38   ar
     6    38    35    1
     7    35    29    1
     8    29    30    1
     9    29    31   am
    10    31    32    2
    11    31    33   am
    12    28    33    1
    13    28     1    1
    14     1     2    2
    15     1     3   am
    16     3     5    1
    17     5     6    1
    18     6     7    1
    19     7     8    1
    20     8    10    1
    21    10    11   am
    22    11    12    2
    23    11    14    1
    24    14    15    1
    25    15    16    1
    26    16    17   ar
    27    17    18   ar
    28    18    19   ar
    29    19    20   ar
    30     5    21    1
    31    21    22    1
    32    22    23   ar
    33    23    24   ar
    34    24    25   ar
    35    25    26   ar
    36    26    27   ar
    37    28    44    1
    38    44    45    1
    39    44    46    1
    40    38    39   ar
    41    39    40   ar
    42    40    36   ar
    43    20    16   ar
    44    27    22   ar
    45    33    34    1
    46     3     4    1
    47     8     9    1
    48    10    13    1
@<TRIPOS>MOLECULE
*****
 46 48 0 0 0
SMALL
GASTEIGER

@<TRIPOS>ATOM
      1 C          61.9336   85.9590   10.7785 C.2     1  UNL1        0.2403
      2 O          61.1289   86.3326   11.9880 O.2     1  UNL1       -0.2733
      3 N          61.7319   86.6948    9.4869 N.am    1  UNL1       -0.3043
      4 H          62.2601   86.4495    8.6931 H       1  UNL1        0.1494
      5 C          60.7256   87.8041    9.4049 C.3     1  UNL1        0.0774
      6 C          59.8561   87.9396    8.1901 C.3     1  UNL1        0.0387
      7 C          59.4539   89.3003    7.7037 C.3     1  UNL1        0.0894
      8 N          59.1218   89.5115    6.2563 N.3     1  UNL1       -0.2274
      9 H          58.1062   89.5825    6.1945 H       1  UNL1        0.1451
     10 N          59.6839   90.6928    5.5224 N.am    1  UNL1       -0.2155
     11 C          58.7619   91.7289    4.9511 C.2     1  UNL1        0.4153
     12 O          57.2779   91.5837    5.1136 O.2     1  UNL1       -0.2251
     13 H          60.6580   90.7882    5.4157 H       1  UNL1        0.1724
     14 O          59.3240   92.9102    4.2172 O.3     1  UNL1       -0.4282
     15 C          59.7303   92.7761    2.7795 C.3     1  UNL1        0.2447
     16 C          61.1625   92.9791    2.3827 C.ar    1  UNL1        0.0714
     17 C          62.3272   92.1451    2.8275 C.ar    1  UNL1        0.1053
     18 N          63.5661   92.7022    2.1913 N.ar    1  UNL1       -0.2350
     19 C          63.1670   93.8805    1.3531 C.ar    1  UNL1        0.1343
     20 S          61.6815   94.0516    1.4715 S.2     1  UNL1       -0.0652
     21 C          60.5888   88.7778   10.5376 C.3     1  UNL1        0.0459
     22 C          61.7219   89.7018   10.8734 C.ar    1  UNL1       -0.0205
     23 C          62.3978   90.4852    9.7875 C.ar    1  UNL1       -0.0042
     24 C          63.5308   91.4090   10.1234 C.ar    1  UNL1       -0.0003
     25 C          63.9878   91.5494   11.5451 C.ar    1  UNL1       -0.0000
     26 C          63.3118   90.7660   12.6311 C.ar    1  UNL1       -0.0003
     27 C          62.1789   89.8422   12.2952 C.ar    1  UNL1       -0.0042
     28 C          62.9399   84.8497   10.8605 C.3     1  UNL1        0.1496
     29 N          63.2719   82.4589   14.0108 N.am    1  UNL1       -0.2567
     30 C          62.7589   81.1320   14.4863 C.3     1  UNL1        0.1168
     31 C          62.8494   82.9909   12.6735 C.2     1  UNL1        0.3046
     32 O          61.9138   82.1959   11.8116 O.2     1  UNL1       -0.2526
     33 N          63.3625   84.3178   12.1980 N.am    1  UNL1       -0.2824
     34 H          63.9765   84.8395   12.7636 H       1  UNL1        0.1514
     35 C          64.2075   83.2539   14.8727 C.3     1  UNL1        0.1413
     36 C          63.5734   86.9589   15.8402 C.ar    1  UNL1        0.0875
     37 N          64.2831   85.9217   15.0213 N.ar    1  UNL1       -0.2453
     38 C          63.7704   84.5741   15.4349 C.ar    1  UNL1        0.0858
     39 C          62.7439   84.7783   16.5093 C.ar    1  UNL1        0.0530
     40 S          62.6221   86.2522   16.7598 S.2     1  UNL1       -0.0705
     41 C          64.6997   89.0132   14.7171 C.3     1  UNL1        0.0069
     42 C          63.7789   88.4423   15.7545 C.3     1  UNL1        0.0465
     43 C          63.0635   89.3548   16.7061 C.3     1  UNL1        0.0069
     44 C          63.5236   84.2723    9.6053 C.3     1  UNL1        0.0270
     45 C          64.3990   83.0563    9.6755 C.3     1  UNL1        0.0022
     46 C          63.2320   84.9109    8.2797 C.3     1  UNL1        0.0022
@<TRIPOS>BOND
     1    41    42    1
     2    42    43    1
     3    42    36    1
     4    36    37   ar
     5    37    38   ar
     6    38    35    1
     7    35    29    1
     8    29    30    1
     9    29    31   am
    10    31    32    2
    11    31    33   am
    12    28    33    1
    13    28     1    1
    14     1     2    2
    15     1     3   am
    16     3     5    1
    17     5     6    1
    18     6     7    1
    19     7     8    1
    20     8    10    1
    21    10    11   am
    22    11    12    2
    23    11    14    1
    24    14    15    1
    25    15    16    1
    26    16    17   ar
    27    17    18   ar
    28    18    19   ar
    29    19    20   ar
    30     5    21    1
    31    21    22    1
    32    22    23   ar
    33    23    24   ar
    34    24    25   ar
    35    25    26   ar
    36    26    27   ar
    37    28    44    1
    38    44    45    1
    39    44    46    1
    40    38    39   ar
    41    39    40   ar
    42    40    36   ar
    43    20    16   ar
    44    27    22   ar
    45    33    34    1
    46     3     4    1
    47     8     9    1
    48    10    13    1
@<TRIPOS>MOLECULE
*****
 46 48 0 0 0
SMALL
GASTEIGER

@<TRIPOS>ATOM
      1 C          61.5406   87.1312   10.7000 C.2     1  UNL1        0.2403
      2 O          60.2933   87.4618   11.4648 O.2     1  UNL1       -0.2733
      3 N          62.1461   88.1471    9.7773 N.am    1  UNL1       -0.3043
      4 H          62.9648   87.9301    9.2753 H       1  UNL1        0.1494
      5 C          61.5042   89.4936    9.6193 C.3     1  UNL1        0.0774
      6 C          60.1210   89.6028    9.0493 C.3     1  UNL1        0.0387
      7 C          59.7445   88.8048    7.8364 C.3     1  UNL1        0.0894
      8 N          58.9701   89.4494    6.7252 N.3     1  UNL1       -0.2274
      9 H          58.0914   89.7743    7.1286 H       1  UNL1        0.1451
     10 N          59.5574   90.6086    5.9760 N.am    1  UNL1       -0.2155
     11 C          58.6627   91.5372    5.2097 C.2     1  UNL1        0.4153
     12 O          57.1806   91.3065    5.1925 O.2     1  UNL1       -0.2251
     13 H          60.5301   90.7601    5.9872 H       1  UNL1        0.1724
     14 O          59.2500   92.6963    4.4605 O.3     1  UNL1       -0.4282
     15 C          59.6338   92.5406    3.0188 C.3     1  UNL1        0.2447
     16 C          61.0371   92.8376    2.5799 C.ar    1  UNL1        0.0714
     17 C          62.2713   92.1064    3.0181 C.ar    1  UNL1        0.1053
     18 N          63.4495   92.7349    2.3349 N.ar    1  UNL1       -0.2350
     19 C          62.9435   93.8546    1.4744 C.ar    1  UNL1        0.1343
     20 S          61.4525   93.9180    1.6259 S.2     1  UNL1       -0.0652
     21 C          62.2455   90.7308   10.0313 C.3     1  UNL1        0.0459
     22 C          63.0031   90.7551   11.3258 C.ar    1  UNL1       -0.0205
     23 C          62.5140   89.9547   12.4963 C.ar    1  UNL1       -0.0042
     24 C          63.2716   89.9791   13.7906 C.ar    1  UNL1       -0.0003
     25 C          64.5184   90.8038   13.9145 C.ar    1  UNL1       -0.0000
     26 C          65.0075   91.6042   12.7440 C.ar    1  UNL1       -0.0003
     27 C          64.2499   91.5798   11.4496 C.ar    1  UNL1       -0.0042
     28 C          62.1825   85.7847   10.8580 C.3     1  UNL1        0.1496
     29 N          62.9170   84.7984   14.6313 N.am    1  UNL1       -0.2567
     30 C          63.7887   85.2394   15.7695 C.3     1  UNL1        0.1168
     31 C          62.9856   85.5120   13.3137 C.2     1  UNL1        0.3046
     32 O          63.9261   86.6668   13.1343 O.2     1  UNL1       -0.2526
     33 N          62.1138   85.0710   12.1756 N.am    1  UNL1       -0.2824
     34 H          61.4966   84.3131   12.2933 H       1  UNL1        0.1514
     35 C          61.9765   83.6436   14.8107 C.3     1  UNL1        0.1413
     36 C          62.6627   80.8596   12.1946 C.ar    1  UNL1        0.0875
     37 N          62.5923   82.3079   12.5787 N.ar    1  UNL1       -0.2453
     38 C          62.1727   82.3862   14.0167 C.ar    1  UNL1        0.0858
     39 C          61.9836   80.9864   14.5213 C.ar    1  UNL1        0.0530
     40 S          62.2864   80.0429   13.3952 S.2     1  UNL1       -0.0705
     41 C          63.7601   81.2002    9.8644 C.3     1  UNL1        0.0069
     42 C          63.0425   80.3225   10.8466 C.3     1  UNL1        0.0465
     43 C          62.7048   78.9075   10.4808 C.3     1  UNL1        0.0069
     44 C          62.8931   85.1519    9.6984 C.3     1  UNL1        0.0270
     45 C          62.5245   85.5320    8.2949 C.3     1  UNL1        0.0022
     46 C          63.9722   84.1390    9.9423 C.3     1  UNL1        0.0022
@<TRIPOS>BOND
     1    41    42    1
     2    42    43    1
     3    42    36    1
     4    36    37   ar
     5    37    38   ar
     6    38    35    1
     7    35    29    1
     8    29    30    1
     9    29    31   am
    10    31    32    2
    11    31    33   am
    12    28    33    1
    13    28     1    1
    14     1     2    2
    15     1     3   am
    16     3     5    1
    17     5     6    1
    18     6     7    1
    19     7     8    1
    20     8    10    1
    21    10    11   am
    22    11    12    2
    23    11    14    1
    24    14    15    1
    25    15    16    1
    26    16    17   ar
    27    17    18   ar
    28    18    19   ar
    29    19    20   ar
    30     5    21    1
    31    21    22    1
    32    22    23   ar
    33    23    24   ar
    34    24    25   ar
    35    25    26   ar
    36    26    27   ar
    37    28    44    1
    38    44    45    1
    39    44    46    1
    40    38    39   ar
    41    39    40   ar
    42    40    36   ar
    43    20    16   ar
    44    27    22   ar
    45    33    34    1
    46     3     4    1
    47     8     9    1
    48    10    13    1
@<TRIPOS>MOLECULE
*****
 46 48 0 0 0
SMALL
GASTEIGER

@<TRIPOS>ATOM
      1 C          63.2821   89.0150   13.0857 C.2     1  UNL1        0.2403
      2 O          62.3176   88.9631   14.2332 O.2     1  UNL1       -0.2733
      3 N          63.8279   87.7434   12.5066 N.am    1  UNL1       -0.3043
      4 H          64.4610   87.7775   11.7534 H       1  UNL1        0.1494
      5 C          63.4090   86.4200   13.0750 C.3     1  UNL1        0.0774
      6 C          64.1163   85.8610   14.2739 C.3     1  UNL1        0.0387
      7 C          63.6560   86.2259   15.6540 C.3     1  UNL1        0.0894
      8 N          62.5079   85.4913   16.2804 N.3     1  UNL1       -0.2274
      9 H          61.8072   86.1918   16.5227 H       1  UNL1        0.1451
     10 N          61.7976   84.4157   15.5131 N.am    1  UNL1       -0.2155
     11 C          62.4856   83.1115   15.2384 C.2     1  UNL1        0.4153
     12 O          63.8839   82.8827   15.7308 O.2     1  UNL1       -0.2251
     13 H          60.8799   84.5658   15.1899 H       1  UNL1        0.1724
     14 O          61.7753   82.0359   14.4712 O.3     1  UNL1       -0.4282
     15 C          62.5505   81.1201   13.5710 C.3     1  UNL1        0.2447
     16 C          63.2978   81.6786   12.3965 C.ar    1  UNL1        0.0714
     17 C          64.4763   82.6045   12.4607 C.ar    1  UNL1        0.1053
     18 N          64.9047   82.9075   11.0555 N.ar    1  UNL1       -0.2350
     19 C          63.9911   82.1689   10.1228 C.ar    1  UNL1        0.1343
     20 S          62.9980   81.4095   10.9516 S.2     1  UNL1       -0.0652
     21 C          62.2829   85.6555   12.4446 C.3     1  UNL1        0.0459
     22 C          61.8047   86.0214   11.0706 C.ar    1  UNL1       -0.0205
     23 C          62.4732   85.4346    9.8629 C.ar    1  UNL1       -0.0042
     24 C          61.9949   85.8005    8.4891 C.ar    1  UNL1       -0.0003
     25 C          60.8482   86.7531    8.3230 C.ar    1  UNL1       -0.0000
     26 C          60.1798   87.3399    9.5308 C.ar    1  UNL1       -0.0003
     27 C          60.6580   86.9740   10.9046 C.ar    1  UNL1       -0.0042
     28 C          63.7010   90.3384   12.5173 C.3     1  UNL1        0.1496
     29 N          65.9431   92.2917   15.1456 N.am    1  UNL1       -0.2567
     30 C          65.8741   92.7589   16.5693 C.3     1  UNL1        0.1168
     31 C          64.7876   91.5487   14.5433 C.2     1  UNL1        0.3046
     32 O          63.5631   91.2729   15.3647 O.2     1  UNL1       -0.2526
     33 N          64.8566   91.0814   13.1196 N.am    1  UNL1       -0.2824
     34 H          65.6602   91.2624   12.5805 H       1  UNL1        0.1514
     35 C          67.1676   92.5674   14.3242 C.3     1  UNL1        0.1413
     36 C          67.2890   93.6055   10.5862 C.ar    1  UNL1        0.0875
     37 N          67.6995   92.6982   11.7079 N.ar    1  UNL1       -0.2453
     38 C          67.0345   93.1820   12.9624 C.ar    1  UNL1        0.0858
     39 C          66.2130   94.3883   12.6160 C.ar    1  UNL1        0.0530
     40 S          66.3703   94.6501   11.1475 S.2     1  UNL1       -0.0705
     41 C          68.5698   92.3310    8.7193 C.3     1  UNL1        0.0069
     42 C          67.7213   93.4889    9.1546 C.3     1  UNL1        0.0465
     43 C          67.3051   94.5300    8.1582 C.3     1  UNL1        0.0069
     44 C          62.9644   90.9188   11.3467 C.3     1  UNL1        0.0270
     45 C          63.6836   91.8030   10.3715 C.3     1  UNL1        0.0022
     46 C          61.5085   90.6150   11.1512 C.3     1  UNL1        0.0022
@<TRIPOS>BOND
     1    41    42    1
     2    42    43    1
     3    42    36    1
     4    36    37   ar
     5    37    38   ar
     6    38    35    1
     7    35    29    1
     8    29    30    1
     9    29    31   am
    10    31    32    2
    11    31    33   am
    12    28    33    1
    13    28     1    1
    14     1     2    2
    15     1     3   am
    16     3     5    1
    17     5     6    1
    18     6     7    1
    19     7     8    1
    20     8    10    1
    21    10    11   am
    22    11    12    2
    23    11    14    1
    24    14    15    1
    25    15    16    1
    26    16    17   ar
    27    17    18   ar
    28    18    19   ar
    29    19    20   ar
    30     5    21    1
    31    21    22    1
    32    22    23   ar
    33    23    24   ar
    34    24    25   ar
    35    25    26   ar
    36    26    27   ar
    37    28    44    1
    38    44    45    1
    39    44    46    1
    40    38    39   ar
    41    39    40   ar
    42    40    36   ar
    43    20    16   ar
    44    27    22   ar
    45    33    34    1
    46     3     4    1
    47     8     9    1
    48    10    13    1
@<TRIPOS>MOLECULE
*****
 46 48 0 0 0
SMALL
GASTEIGER

@<TRIPOS>ATOM
      1 C          62.7536   85.1500   12.7209 C.2     1  UNL1        0.2403
      2 O          61.6442   84.8651   13.6893 O.2     1  UNL1       -0.2733
      3 N          64.1827   85.0195   13.1579 N.am    1  UNL1       -0.3043
      4 H          64.9109   85.2065   12.5223 H       1  UNL1        0.1494
      5 C          64.5022   84.6040   14.5634 C.3     1  UNL1        0.0774
      6 C          64.7529   85.6445   15.6144 C.3     1  UNL1        0.0387
      7 C          63.6325   86.0991   16.5020 C.3     1  UNL1        0.0894
      8 N          63.1969   87.5344   16.4844 N.3     1  UNL1       -0.2274
      9 H          63.5883   87.9711   17.3190 H       1  UNL1        0.1451
     10 N          63.5596   88.4141   15.3248 N.am    1  UNL1       -0.2155
     11 C          63.5624   89.9053   15.4868 C.2     1  UNL1        0.4153
     12 O          63.2026   90.5168   16.8084 O.2     1  UNL1       -0.2251
     13 H          63.7957   88.0127   14.4574 H       1  UNL1        0.1724
     14 O          63.9250   90.7849   14.3272 O.3     1  UNL1       -0.4282
     15 C          65.3016   91.3736   14.2340 C.3     1  UNL1        0.2447
     16 C          65.6290   92.3461   13.1400 C.ar    1  UNL1        0.0714
     17 C          66.5250   93.5427   13.2630 C.ar    1  UNL1        0.1053
     18 N          66.5676   94.2289   11.9298 N.ar    1  UNL1       -0.2350
     19 C          65.6979   93.4563   10.9828 C.ar    1  UNL1        0.1343
     20 S          65.1178   92.2926   11.7307 S.2     1  UNL1       -0.0652
     21 C          64.5709   83.1482   14.9178 C.3     1  UNL1        0.0459
     22 C          63.5803   82.1860   14.3321 C.ar    1  UNL1       -0.0205
     23 C          64.0012   81.2483   13.2397 C.ar    1  UNL1       -0.0042
     24 C          63.0106   80.2863   12.6541 C.ar    1  UNL1       -0.0003
     25 C          61.5990   80.2619   13.1609 C.ar    1  UNL1       -0.0000
     26 C          61.1781   81.1995   14.2533 C.ar    1  UNL1       -0.0003
     27 C          62.1687   82.1616   14.8390 C.ar    1  UNL1       -0.0042
     28 C          62.4341   85.5654   11.3154 C.3     1  UNL1        0.1496
     29 N          61.1210   89.3087   11.1977 N.am    1  UNL1       -0.2567
     30 C          61.5821   90.6846   11.5777 C.3     1  UNL1        0.1168
     31 C          62.0081   88.1250   11.4465 C.2     1  UNL1        0.3046
     32 O          63.3563   88.3172   12.0754 O.2     1  UNL1       -0.2526
     33 N          61.5470   86.7491   11.0666 N.am    1  UNL1       -0.2824
     34 H          60.6621   86.6230   10.6538 H       1  UNL1        0.1514
     35 C          59.7727   89.1165   10.5688 C.3     1  UNL1        0.1413
     36 C          59.4443   89.7954    6.7614 C.ar    1  UNL1        0.0875
     37 N          59.5784   90.2853    8.1728 N.ar    1  UNL1       -0.2453
     38 C          59.6390   89.0886    9.0751 C.ar    1  UNL1        0.0858
     39 C          59.5423   87.8590    8.2214 C.ar    1  UNL1        0.0530
     40 S          59.4220   88.2958    6.7915 S.2     1  UNL1       -0.0705
     41 C          58.0155   91.1699    5.0824 C.3     1  UNL1        0.0069
     42 C          59.3492   90.6541    5.5353 C.3     1  UNL1        0.0465
     43 C          60.5879   90.9971    4.7620 C.3     1  UNL1        0.0069
     44 C          63.0018   84.7973   10.1589 C.3     1  UNL1        0.0270
     45 C          62.9101   85.3562    8.7699 C.3     1  UNL1        0.0022
     46 C          63.6610   83.4701   10.3913 C.3     1  UNL1        0.0022
@<TRIPOS>BOND
     1    41    42    1
     2    42    43    1
     3    42    36    1
     4    36    37   ar
     5    37    38   ar
     6    38    35    1
     7    35    29    1
     8    29    30    1
     9    29    31   am
    10    31    32    2
    11    31    33   am
    12    28    33    1
    13    28     1    1
    14     1     2    2
    15     1     3   am
    16     3     5    1
    17     5     6    1
    18     6     7    1
    19     7     8    1
    20     8    10    1
    21    10    11   am
    22    11    12    2
    23    11    14    1
    24    14    15    1
    25    15    16    1
    26    16    17   ar
    27    17    18   ar
    28    18    19   ar
    29    19    20   ar
    30     5    21    1
    31    21    22    1
    32    22    23   ar
    33    23    24   ar
    34    24    25   ar
    35    25    26   ar
    36    26    27   ar
    37    28    44    1
    38    44    45    1
    39    44    46    1
    40    38    39   ar
    41    39    40   ar
    42    40    36   ar
    43    20    16   ar
    44    27    22   ar
    45    33    34    1
    46     3     4    1
    47     8     9    1
    48    10    13    1
