@<TRIPOS>MOLECULE
*****
 33 37 0 0 0
SMALL
GASTEIGER

@<TRIPOS>ATOM
      1 C          62.7217   87.2450   11.7513 C.2     1  UNL1        0.2506
      2 O          63.3661   87.3566   13.1012 O.2     1  UNL1       -0.2699
      3 N          61.9135   88.3865   11.2095 N.am    1  UNL1       -0.2723
      4 C          61.2690   88.2749    9.8595 C.3     1  UNL1        0.1257
      5 C          60.4607   89.4165    9.3177 C.3     1  UNL1        0.1637
      6 O          60.2969   90.6696   10.1257 O.3     1  UNL1       -0.3502
      7 C          60.9413   90.7812   11.4756 C.3     1  UNL1        0.1622
      8 C          61.7496   89.6397   12.0175 C.3     1  UNL1        0.1096
      9 C          62.8170   84.8405    7.1460 C.3     1  UNL1        0.0310
     10 C          62.9332   84.7896    8.6406 C.ar    1  UNL1       -0.0216
     11 C          63.2132   83.4858    9.3272 C.ar    1  UNL1       -0.0026
     12 C          63.3294   83.4350   10.8219 C.ar    1  UNL1        0.0207
     13 C          63.1656   84.6880   11.6299 C.ar    1  UNL1        0.1072
     14 C          62.8856   85.9919   10.9433 C.ar    1  UNL1        0.0726
     15 C          62.7694   86.0427    9.4487 C.ar    1  UNL1        0.0018
     16 N          63.2818   84.6372   13.1245 N.ar    1  UNL1       -0.1477
     17 N          62.1403   84.5931   14.0966 N.ar    1  UNL1       -0.1447
     18 C          62.7128   84.5502   15.4824 C.ar    1  UNL1        0.1446
     19 C          64.2083   84.5678   15.3667 C.ar    1  UNL1        0.1446
     20 N          64.5599   84.6216   13.9095 N.ar    1  UNL1       -0.1447
     21 C          62.3940   89.7512   13.3674 C.3     1  UNL1        0.0484
     22 C          63.6107   90.6094   13.5490 C.ar    1  UNL1       -0.0228
     23 C          64.2324   91.2893   12.3653 C.ar    1  UNL1        0.0164
     24 C          65.4492   92.1476   12.5469 C.ar    1  UNL1        0.1026
     25 C          66.0443   92.3259   13.9122 C.ar    1  UNL1        0.0206
     26 C          65.4225   91.6459   15.0960 C.ar    1  UNL1       -0.0030
     27 C          64.2058   90.7877   14.9143 C.ar    1  UNL1       -0.0256
     28 C          63.5841   90.1078   16.0981 C.3     1  UNL1        0.0307
     29 N          66.0709   92.8275   11.3632 N.ar    1  UNL1       -0.1478
     30 N          67.3702   92.4536   10.7136 N.ar    1  UNL1       -0.1447
     31 C          67.6048   93.3956    9.5702 C.ar    1  UNL1        0.1446
     32 C          66.4503   94.3518    9.5130 C.ar    1  UNL1        0.1446
     33 N          65.5024   94.0006   10.6211 N.ar    1  UNL1       -0.1447
@<TRIPOS>BOND
     1     9    10    1
     2    10    11   ar
     3    11    12   ar
     4    12    13   ar
     5    13    16    1
     6    16    17   ar
     7    17    18   ar
     8    18    19   ar
     9    19    20   ar
    10    13    14   ar
    11    14     1    1
    12     1     2    2
    13     1     3   am
    14     3     4    1
    15     4     5    1
    16     5     6    1
    17     6     7    1
    18     7     8    1
    19     8    21    1
    20    21    22    1
    21    22    23   ar
    22    23    24   ar
    23    24    29    1
    24    29    30   ar
    25    30    31   ar
    26    31    32   ar
    27    32    33   ar
    28    24    25   ar
    29    25    26   ar
    30    26    27   ar
    31    27    28    1
    32    14    15   ar
    33    15    10   ar
    34    20    16   ar
    35     8     3    1
    36    27    22   ar
    37    33    29   ar
@<TRIPOS>MOLECULE
*****
 33 37 0 0 0
SMALL
GASTEIGER

@<TRIPOS>ATOM
      1 C          63.5543   86.9851   13.2525 C.2     1  UNL1        0.2506
      2 O          64.2217   87.4729   14.5041 O.2     1  UNL1       -0.2699
      3 N          63.0548   87.9691   12.2365 N.am    1  UNL1       -0.2723
      4 C          62.3873   87.4812   10.9849 C.3     1  UNL1        0.1257
      5 C          61.8878   88.4653    9.9689 C.3     1  UNL1        0.1637
      6 O          62.0557   89.9371   10.2045 O.3     1  UNL1       -0.3502
      7 C          62.7232   90.4249   11.4562 C.3     1  UNL1        0.1622
      8 C          63.2227   89.4409   12.4721 C.3     1  UNL1        0.1096
      9 C          63.6262   82.9060   10.0344 C.3     1  UNL1        0.0310
     10 C          63.4223   83.4737   11.4078 C.ar    1  UNL1       -0.0216
     11 C          63.0506   82.5696   12.5455 C.ar    1  UNL1       -0.0026
     12 C          62.8467   83.1373   13.9189 C.ar    1  UNL1        0.0207
     13 C          63.0146   84.6091   14.1545 C.ar    1  UNL1        0.1072
     14 C          63.3864   85.5132   13.0168 C.ar    1  UNL1        0.0726
     15 C          63.5902   84.9455   11.6435 C.ar    1  UNL1        0.0018
     16 N          62.8108   85.1769   15.5279 N.ar    1  UNL1       -0.1477
     17 N          63.8915   85.5134   16.5122 N.ar    1  UNL1       -0.1447
     18 C          63.2391   86.0523   17.7507 C.ar    1  UNL1        0.1446
     19 C          61.7551   86.0487   17.5319 C.ar    1  UNL1        0.1446
     20 N          61.4904   85.5077   16.1582 N.ar    1  UNL1       -0.1447
     21 C          63.8901   89.9288   13.7237 C.3     1  UNL1        0.0484
     22 C          64.8403   91.0878   13.6641 C.ar    1  UNL1       -0.0228
     23 C          65.4939   91.4558   12.3651 C.ar    1  UNL1        0.0164
     24 C          66.4441   92.6149   12.3054 C.ar    1  UNL1        0.1026
     25 C          66.7408   93.4060   13.5448 C.ar    1  UNL1        0.0206
     26 C          66.0872   93.0380   14.8439 C.ar    1  UNL1       -0.0030
     27 C          65.1370   91.8790   14.9035 C.ar    1  UNL1       -0.0256
     28 C          64.4835   91.5110   16.2025 C.3     1  UNL1        0.0307
     29 N          67.0977   92.9828   11.0064 N.ar    1  UNL1       -0.1478
     30 N          67.1308   94.3511   10.3926 N.ar    1  UNL1       -0.1447
     31 C          67.8864   94.2610    9.0999 C.ar    1  UNL1        0.1446
     32 C          68.3203   92.8371    8.9149 C.ar    1  UNL1        0.1446
     33 N          67.8329   92.0472   10.0932 N.ar    1  UNL1       -0.1447
@<TRIPOS>BOND
     1     9    10    1
     2    10    11   ar
     3    11    12   ar
     4    12    13   ar
     5    13    16    1
     6    16    17   ar
     7    17    18   ar
     8    18    19   ar
     9    19    20   ar
    10    13    14   ar
    11    14     1    1
    12     1     2    2
    13     1     3   am
    14     3     4    1
    15     4     5    1
    16     5     6    1
    17     6     7    1
    18     7     8    1
    19     8    21    1
    20    21    22    1
    21    22    23   ar
    22    23    24   ar
    23    24    29    1
    24    29    30   ar
    25    30    31   ar
    26    31    32   ar
    27    32    33   ar
    28    24    25   ar
    29    25    26   ar
    30    26    27   ar
    31    27    28    1
    32    14    15   ar
    33    15    10   ar
    34    20    16   ar
    35     8     3    1
    36    27    22   ar
    37    33    29   ar
@<TRIPOS>MOLECULE
*****
 33 37 0 0 0
SMALL
GASTEIGER

@<TRIPOS>ATOM
      1 C          63.0358   86.6451   12.5784 C.2     1  UNL1        0.2506
      2 O          63.6061   87.5402   13.6383 O.2     1  UNL1       -0.2699
      3 N          62.1028   87.2051   11.5460 N.am    1  UNL1       -0.2723
      4 C          61.5325   86.3099   10.4861 C.3     1  UNL1        0.1257
      5 C          60.5994   86.8700    9.4538 C.3     1  UNL1        0.1637
      6 O          60.2366   88.3252    9.4814 O.3     1  UNL1       -0.3502
      7 C          60.8069   89.2204   10.5413 C.3     1  UNL1        0.1622
      8 C          61.7400   88.6603   11.5736 C.3     1  UNL1        0.1096
      9 C          64.3689   82.3894    9.9114 C.3     1  UNL1        0.0310
     10 C          64.0651   83.0620   11.2173 C.ar    1  UNL1       -0.0216
     11 C          64.1242   82.2795   12.4955 C.ar    1  UNL1       -0.0026
     12 C          63.8205   82.9520   13.8014 C.ar    1  UNL1        0.0207
     13 C          63.4577   84.4072   13.8291 C.ar    1  UNL1        0.1072
     14 C          63.3986   85.1898   12.5508 C.ar    1  UNL1        0.0726
     15 C          63.7024   84.5172   11.2449 C.ar    1  UNL1        0.0018
     16 N          63.1539   85.0798   15.1350 N.ar    1  UNL1       -0.1477
     17 N          61.8211   85.1096   15.8224 N.ar    1  UNL1       -0.1447
     18 C          61.9731   85.8889   17.0950 C.ar    1  UNL1        0.1446
     19 C          63.4000   86.3408   17.1941 C.ar    1  UNL1        0.1446
     20 N          64.1298   85.8408   15.9828 N.ar    1  UNL1       -0.1447
     21 C          62.3103   89.5555   12.6335 C.3     1  UNL1        0.0484
     22 C          63.4243   90.5017   12.2965 C.ar    1  UNL1       -0.0228
     23 C          64.4520   90.8496   13.3322 C.ar    1  UNL1        0.0164
     24 C          65.5661   91.7958   12.9951 C.ar    1  UNL1        0.1026
     25 C          65.6525   92.3940   11.6223 C.ar    1  UNL1        0.0206
     26 C          64.6247   92.0460   10.5865 C.ar    1  UNL1       -0.0030
     27 C          63.5107   91.0999   10.9236 C.ar    1  UNL1       -0.0256
     28 C          62.4830   90.7520    9.8879 C.3     1  UNL1        0.0307
     29 N          66.5938   92.1437   14.0308 N.ar    1  UNL1       -0.1478
     30 N          68.0618   92.3325   13.7876 N.ar    1  UNL1       -0.1447
     31 C          68.7092   92.6694   15.0981 C.ar    1  UNL1        0.1446
     32 C          67.6413   92.6888   16.1513 C.ar    1  UNL1        0.1446
     33 N          66.3339   92.3639   15.4917 N.ar    1  UNL1       -0.1447
@<TRIPOS>BOND
     1     9    10    1
     2    10    11   ar
     3    11    12   ar
     4    12    13   ar
     5    13    16    1
     6    16    17   ar
     7    17    18   ar
     8    18    19   ar
     9    19    20   ar
    10    13    14   ar
    11    14     1    1
    12     1     2    2
    13     1     3   am
    14     3     4    1
    15     4     5    1
    16     5     6    1
    17     6     7    1
    18     7     8    1
    19     8    21    1
    20    21    22    1
    21    22    23   ar
    22    23    24   ar
    23    24    29    1
    24    29    30   ar
    25    30    31   ar
    26    31    32   ar
    27    32    33   ar
    28    24    25   ar
    29    25    26   ar
    30    26    27   ar
    31    27    28    1
    32    14    15   ar
    33    15    10   ar
    34    20    16   ar
    35     8     3    1
    36    27    22   ar
    37    33    29   ar
@<TRIPOS>MOLECULE
*****
 33 37 0 0 0
SMALL
GASTEIGER

@<TRIPOS>ATOM
      1 C          62.7319   87.4110   11.7171 C.2     1  UNL1        0.2506
      2 O          63.6996   87.8367   12.7812 O.2     1  UNL1       -0.2699
      3 N          61.6156   88.3259   11.3090 N.am    1  UNL1       -0.2723
      4 C          60.6479   87.9002   10.2449 C.3     1  UNL1        0.1257
      5 C          59.5315   88.8153    9.8368 C.3     1  UNL1        0.1637
      6 O          59.3829   90.1560   10.4928 O.3     1  UNL1       -0.3502
      7 C          60.3506   90.5817   11.5569 C.3     1  UNL1        0.1622
      8 C          61.4669   89.6667   11.9650 C.3     1  UNL1        0.1096
      9 C          62.8472   84.4917    7.4201 C.3     1  UNL1        0.0310
     10 C          62.9382   84.6106    8.9126 C.ar    1  UNL1       -0.0216
     11 C          63.1779   83.3888    9.7491 C.ar    1  UNL1       -0.0026
     12 C          63.2689   83.5077   11.2416 C.ar    1  UNL1        0.0207
     13 C          63.1203   84.8484   11.8976 C.ar    1  UNL1        0.1072
     14 C          62.8806   86.0702   11.0611 C.ar    1  UNL1        0.0726
     15 C          62.7896   85.9513    9.5686 C.ar    1  UNL1        0.0018
     16 N          63.2113   84.9673   13.3901 N.ar    1  UNL1       -0.1477
     17 N          62.0800   84.7912   14.3592 N.ar    1  UNL1       -0.1447
     18 C          62.6191   84.9982   15.7436 C.ar    1  UNL1        0.1446
     19 C          64.0835   85.3023   15.6301 C.ar    1  UNL1        0.1446
     20 N          64.4495   85.2832   14.1755 N.ar    1  UNL1       -0.1447
     21 C          62.4346   90.0924   13.0291 C.3     1  UNL1        0.0484
     22 C          63.6387   90.9093   12.6646 C.ar    1  UNL1       -0.0228
     23 C          64.6466   91.2696   13.7153 C.ar    1  UNL1        0.0164
     24 C          65.8508   92.0865   13.3508 C.ar    1  UNL1        0.1026
     25 C          66.0469   92.5430   11.9355 C.ar    1  UNL1        0.0206
     26 C          65.0388   92.1827   10.8847 C.ar    1  UNL1       -0.0030
     27 C          63.8348   91.3659   11.2493 C.ar    1  UNL1       -0.0256
     28 C          62.8268   91.0056   10.1985 C.3     1  UNL1        0.0307
     29 N          66.8588   92.4467   14.4016 N.ar    1  UNL1       -0.1478
     30 N          67.2440   93.8365   14.8141 N.ar    1  UNL1       -0.1447
     31 C          68.2818   93.7292   15.8918 C.ar    1  UNL1        0.1446
     32 C          68.5380   92.2731   16.1454 C.ar    1  UNL1        0.1446
     33 N          67.6585   91.4805   15.2244 N.ar    1  UNL1       -0.1447
@<TRIPOS>BOND
     1     9    10    1
     2    10    11   ar
     3    11    12   ar
     4    12    13   ar
     5    13    16    1
     6    16    17   ar
     7    17    18   ar
     8    18    19   ar
     9    19    20   ar
    10    13    14   ar
    11    14     1    1
    12     1     2    2
    13     1     3   am
    14     3     4    1
    15     4     5    1
    16     5     6    1
    17     6     7    1
    18     7     8    1
    19     8    21    1
    20    21    22    1
    21    22    23   ar
    22    23    24   ar
    23    24    29    1
    24    29    30   ar
    25    30    31   ar
    26    31    32   ar
    27    32    33   ar
    28    24    25   ar
    29    25    26   ar
    30    26    27   ar
    31    27    28    1
    32    14    15   ar
    33    15    10   ar
    34    20    16   ar
    35     8     3    1
    36    27    22   ar
    37    33    29   ar
@<TRIPOS>MOLECULE
*****
 33 37 0 0 0
SMALL
GASTEIGER

@<TRIPOS>ATOM
      1 C          63.2645   87.5964   12.8999 C.2     1  UNL1        0.2506
      2 O          63.2195   88.3741   11.6180 O.2     1  UNL1       -0.2699
      3 N          63.2847   88.3180   14.2147 N.am    1  UNL1       -0.2723
      4 C          63.3298   87.5403   15.4965 C.3     1  UNL1        0.1257
      5 C          63.3500   88.2620   16.8113 C.3     1  UNL1        0.1637
      6 O          63.3251   89.7614   16.8443 O.3     1  UNL1       -0.3502
      7 C          63.2800   90.5392   15.5625 C.3     1  UNL1        0.1622
      8 C          63.2598   89.8175   14.2477 C.3     1  UNL1        0.1096
      9 C          64.9166   83.0788   14.8652 C.3     1  UNL1        0.0310
     10 C          64.1155   83.8381   13.8495 C.ar    1  UNL1       -0.0216
     11 C          63.3393   83.0981   12.8009 C.ar    1  UNL1       -0.0026
     12 C          62.5381   83.8574   11.7852 C.ar    1  UNL1        0.0207
     13 C          62.5132   85.3568   11.8182 C.ar    1  UNL1        0.1072
     14 C          63.2894   86.0969   12.8668 C.ar    1  UNL1        0.0726
     15 C          64.0906   85.3375   13.8825 C.ar    1  UNL1        0.0018
     16 N          61.7121   86.1161   10.8025 N.ar    1  UNL1       -0.1477
     17 N          60.5705   87.0443   11.0947 N.ar    1  UNL1       -0.1447
     18 C          60.0648   87.5824    9.7891 C.ar    1  UNL1        0.1446
     19 C          60.8937   86.9868    8.6899 C.ar    1  UNL1        0.1446
     20 N          61.9118   86.0806    9.3163 N.ar    1  UNL1       -0.1447
     21 C          63.2148   90.5952   12.9658 C.3     1  UNL1        0.0484
     22 C          64.3928   91.4257   12.5507 C.ar    1  UNL1       -0.0228
     23 C          65.4546   91.7742   13.5512 C.ar    1  UNL1        0.0164
     24 C          66.6328   92.6048   13.1360 C.ar    1  UNL1        0.1026
     25 C          66.7490   93.0868   11.7204 C.ar    1  UNL1        0.0206
     26 C          65.6871   92.7382   10.7198 C.ar    1  UNL1       -0.0030
     27 C          64.5091   91.9077   11.1350 C.ar    1  UNL1       -0.0256
     28 C          63.4473   91.5592   10.1345 C.3     1  UNL1        0.0307
     29 N          67.6946   92.9533   14.1366 N.ar    1  UNL1       -0.1478
     30 N          67.5325   93.8739   15.3096 N.ar    1  UNL1       -0.1447
     31 C          68.8426   93.9320   16.0378 C.ar    1  UNL1        0.1446
     32 C          69.8144   93.0472   15.3147 C.ar    1  UNL1        0.1446
     33 N          69.1049   92.4423   14.1397 N.ar    1  UNL1       -0.1447
@<TRIPOS>BOND
     1     9    10    1
     2    10    11   ar
     3    11    12   ar
     4    12    13   ar
     5    13    16    1
     6    16    17   ar
     7    17    18   ar
     8    18    19   ar
     9    19    20   ar
    10    13    14   ar
    11    14     1    1
    12     1     2    2
    13     1     3   am
    14     3     4    1
    15     4     5    1
    16     5     6    1
    17     6     7    1
    18     7     8    1
    19     8    21    1
    20    21    22    1
    21    22    23   ar
    22    23    24   ar
    23    24    29    1
    24    29    30   ar
    25    30    31   ar
    26    31    32   ar
    27    32    33   ar
    28    24    25   ar
    29    25    26   ar
    30    26    27   ar
    31    27    28    1
    32    14    15   ar
    33    15    10   ar
    34    20    16   ar
    35     8     3    1
    36    27    22   ar
    37    33    29   ar
@<TRIPOS>MOLECULE
*****
 33 37 0 0 0
SMALL
GASTEIGER

@<TRIPOS>ATOM
      1 C          63.3070   88.0027   13.1574 C.2     1  UNL1        0.2506
      2 O          63.4173   89.1615   12.2114 O.2     1  UNL1       -0.2699
      3 N          63.3011   88.2414   14.6383 N.am    1  UNL1       -0.2723
      4 C          63.1908   87.0826   15.5843 C.3     1  UNL1        0.1257
      5 C          63.1849   87.3213   17.0652 C.3     1  UNL1        0.1637
      6 O          63.2892   88.7188   17.6000 O.3     1  UNL1       -0.3502
      7 C          63.3995   89.8776   16.6540 C.3     1  UNL1        0.1622
      8 C          63.4054   89.6389   15.1731 C.3     1  UNL1        0.1096
      9 C          64.6661   82.9917   13.3653 C.3     1  UNL1        0.0310
     10 C          63.8823   84.0996   12.7265 C.ar    1  UNL1       -0.0216
     11 C          62.9942   83.8101   11.5529 C.ar    1  UNL1       -0.0026
     12 C          62.2103   84.9181   10.9141 C.ar    1  UNL1        0.0207
     13 C          62.3146   86.3156   11.4489 C.ar    1  UNL1        0.1072
     14 C          63.2027   86.6051   12.6225 C.ar    1  UNL1        0.0726
     15 C          63.9866   85.4971   13.2613 C.ar    1  UNL1        0.0018
     16 N          61.5308   87.4235   10.8102 N.ar    1  UNL1       -0.1477
     17 N          61.8563   88.0983    9.5106 N.ar    1  UNL1       -0.1447
     18 C          60.8105   89.1430    9.2561 C.ar    1  UNL1        0.1446
     19 C          59.8386   89.1140   10.3982 C.ar    1  UNL1        0.1446
     20 N          60.2838   88.0513   11.3587 N.ar    1  UNL1       -0.1447
     21 C          63.5157   90.7977   14.2271 C.3     1  UNL1        0.0484
     22 C          64.7981   91.5700   14.1334 C.ar    1  UNL1       -0.0228
     23 C          65.4586   91.7682   12.8013 C.ar    1  UNL1        0.0164
     24 C          66.7411   92.5406   12.7076 C.ar    1  UNL1        0.1026
     25 C          67.3631   93.1147   13.9460 C.ar    1  UNL1        0.0206
     26 C          66.7026   92.9164   15.2781 C.ar    1  UNL1       -0.0030
     27 C          65.4201   92.1441   15.3718 C.ar    1  UNL1       -0.0256
     28 C          64.7596   91.9459   16.7038 C.3     1  UNL1        0.0307
     29 N          67.4016   92.7388   11.3755 N.ar    1  UNL1       -0.1478
     30 N          68.4377   91.8435   10.7632 N.ar    1  UNL1       -0.1447
     31 C          68.8184   92.4185    9.4312 C.ar    1  UNL1        0.1446
     32 C          68.0176   93.6692    9.2201 C.ar    1  UNL1        0.1446
     33 N          67.1420   93.8671   10.4218 N.ar    1  UNL1       -0.1447
@<TRIPOS>BOND
     1     9    10    1
     2    10    11   ar
     3    11    12   ar
     4    12    13   ar
     5    13    16    1
     6    16    17   ar
     7    17    18   ar
     8    18    19   ar
     9    19    20   ar
    10    13    14   ar
    11    14     1    1
    12     1     2    2
    13     1     3   am
    14     3     4    1
    15     4     5    1
    16     5     6    1
    17     6     7    1
    18     7     8    1
    19     8    21    1
    20    21    22    1
    21    22    23   ar
    22    23    24   ar
    23    24    29    1
    24    29    30   ar
    25    30    31   ar
    26    31    32   ar
    27    32    33   ar
    28    24    25   ar
    29    25    26   ar
    30    26    27   ar
    31    27    28    1
    32    14    15   ar
    33    15    10   ar
    34    20    16   ar
    35     8     3    1
    36    27    22   ar
    37    33    29   ar
