@<TRIPOS>MOLECULE
*****
 24 26 0 0 0
SMALL
GASTEIGER

@<TRIPOS>ATOM
      1 C          64.1638   88.6363   14.2253 C.ar    1  UNL1       -0.0006
      2 C          64.6092   87.4905   15.0847 C.ar    1  UNL1       -0.0000
      3 C          64.3398   86.0796   14.6523 C.ar    1  UNL1        0.0000
      4 C          63.6250   85.8147   13.3605 C.ar    1  UNL1        0.0001
      5 C          63.1796   86.9605   12.5010 C.ar    1  UNL1        0.0000
      6 C          63.4490   88.3713   12.9334 C.ar    1  UNL1       -0.0000
      7 C          63.3556   84.4039   12.9281 C.ar    1  UNL1        0.0030
      8 C          63.5374   84.0120   11.4916 C.ar    1  UNL1        0.0002
      9 C          63.2679   82.6011   11.0592 C.ar    1  UNL1        0.0031
     10 C          62.8168   81.5822   12.0633 C.ar    1  UNL1        0.0366
     11 C          62.6350   81.9740   13.4998 C.ar    1  UNL1        0.1337
     12 O          62.1839   80.9551   14.5038 O.3     1  UNL1       -0.5055
     13 C          62.9044   83.3848   13.9322 C.ar    1  UNL1        0.0366
     14 H          62.0156   80.0738   14.2337 H       1  UNL1        0.2922
     15 C          63.0106   89.6630   16.7975 C.3     1  UNL1        0.0264
     16 C          63.8566   90.5605   15.9438 C.2     1  UNL1       -0.0436
     17 C          64.1260   91.9714   16.3761 C.3     1  UNL1        0.0264
     18 C          64.4332   90.0471   14.6577 C.2     1  UNL1       -0.0078
     19 C          65.2792   90.9447   13.8040 C.ar    1  UNL1        0.0025
     20 C          64.6860   91.6097   12.5974 C.ar    1  UNL1        0.0207
     21 C          65.5320   92.5072   11.7438 C.ar    1  UNL1        0.0989
     22 N          66.9712   92.7397   12.0967 N.ar    1  UNL1       -0.2423
     23 C          67.5644   92.0747   13.3033 C.ar    1  UNL1        0.0989
     24 C          66.7184   91.1772   14.1569 C.ar    1  UNL1        0.0207
@<TRIPOS>BOND
     1    15    16    1
     2    16    17    1
     3    16    18    2
     4    18    19    1
     5    19    20   ar
     6    20    21   ar
     7    21    22   ar
     8    22    23   ar
     9    23    24   ar
    10    18     1    1
    11     1     2   ar
    12     2     3   ar
    13     3     4   ar
    14     4     7    1
    15     7     8   ar
    16     8     9   ar
    17     9    10   ar
    18    10    11   ar
    19    11    12    1
    20    11    13   ar
    21     4     5   ar
    22     5     6   ar
    23    24    19   ar
    24     6     1   ar
    25    13     7   ar
    26    12    14    1
@<TRIPOS>MOLECULE
*****
 24 26 0 0 0
SMALL
GASTEIGER

@<TRIPOS>ATOM
      1 C          64.1683   88.6494   14.2236 C.ar    1  UNL1       -0.0006
      2 C          63.4489   88.3843   12.9343 C.ar    1  UNL1       -0.0000
      3 C          63.1776   86.9733   12.5033 C.ar    1  UNL1        0.0000
      4 C          63.6256   85.8276   13.3615 C.ar    1  UNL1        0.0001
      5 C          64.3450   86.0928   14.6507 C.ar    1  UNL1        0.0000
      6 C          64.6163   87.5036   15.0818 C.ar    1  UNL1       -0.0000
      7 C          63.3542   84.4168   12.9304 C.ar    1  UNL1        0.0030
      8 C          63.5551   84.0183   11.4984 C.ar    1  UNL1        0.0002
      9 C          63.2838   82.6074   11.0673 C.ar    1  UNL1        0.0031
     10 C          62.8115   81.5950   12.0683 C.ar    1  UNL1        0.0366
     11 C          62.6105   81.9935   13.5004 C.ar    1  UNL1        0.1337
     12 O          62.1382   80.9812   14.5014 O.3     1  UNL1       -0.5055
     13 C          62.8819   83.4044   13.9315 C.ar    1  UNL1        0.0366
     14 H          61.9687   80.0999   14.2322 H       1  UNL1        0.2922
     15 C          63.0116   89.6820   16.7918 C.3     1  UNL1        0.0264
     16 C          63.8613   90.5766   15.9387 C.2     1  UNL1       -0.0436
     17 C          64.1327   91.9875   16.3698 C.3     1  UNL1        0.0264
     18 C          64.4397   90.0602   14.6546 C.2     1  UNL1       -0.0078
     19 C          65.2894   90.9548   13.8016 C.ar    1  UNL1        0.0025
     20 C          66.7299   91.1803   14.1541 C.ar    1  UNL1        0.0207
     21 C          67.5795   92.0749   13.3010 C.ar    1  UNL1        0.0989
     22 N          66.9888   92.7440   12.0955 N.ar    1  UNL1       -0.2423
     23 C          65.5484   92.5185   11.7430 C.ar    1  UNL1        0.0989
     24 C          64.6987   91.6239   12.5960 C.ar    1  UNL1        0.0207
@<TRIPOS>BOND
     1    15    16    1
     2    16    17    1
     3    16    18    2
     4    18    19    1
     5    19    20   ar
     6    20    21   ar
     7    21    22   ar
     8    22    23   ar
     9    23    24   ar
    10    18     1    1
    11     1     2   ar
    12     2     3   ar
    13     3     4   ar
    14     4     7    1
    15     7     8   ar
    16     8     9   ar
    17     9    10   ar
    18    10    11   ar
    19    11    12    1
    20    11    13   ar
    21     4     5   ar
    22     5     6   ar
    23    24    19   ar
    24     6     1   ar
    25    13     7   ar
    26    12    14    1
@<TRIPOS>MOLECULE
*****
 24 26 0 0 0
SMALL
GASTEIGER

@<TRIPOS>ATOM
      1 C          62.8495   88.9813   11.8644 C.ar    1  UNL1       -0.0006
      2 C          63.4254   88.3903   13.1170 C.ar    1  UNL1       -0.0000
      3 C          64.3799   89.1898   13.9535 C.ar    1  UNL1        0.0000
      4 C          64.7585   90.5803   13.5374 C.ar    1  UNL1        0.0001
      5 C          64.1825   91.1714   12.2848 C.ar    1  UNL1        0.0000
      6 C          63.2281   90.3719   11.4483 C.ar    1  UNL1       -0.0000
      7 C          65.7129   91.3798   14.3740 C.ar    1  UNL1        0.0030
      8 C          65.2543   91.9770   15.6713 C.ar    1  UNL1        0.0002
      9 C          66.2089   92.7765   16.5078 C.ar    1  UNL1        0.0031
     10 C          67.6219   92.9788   16.0470 C.ar    1  UNL1        0.0366
     11 C          68.0804   92.3817   14.7496 C.ar    1  UNL1        0.1337
     12 O          69.4935   92.5840   14.2888 O.3     1  UNL1       -0.5055
     13 C          67.1260   91.5822   13.9131 C.ar    1  UNL1        0.0366
     14 H          70.0897   93.0834   14.8113 H       1  UNL1        0.2922
     15 C          60.1040   90.0455   11.2901 C.3     1  UNL1        0.0264
     16 C          60.5223   88.7139   10.7407 C.2     1  UNL1       -0.0436
     17 C          59.5679   87.9143    9.9042 C.3     1  UNL1        0.0264
     18 C          61.8951   88.1818   11.0279 C.2     1  UNL1       -0.0078
     19 C          62.3133   86.8501   10.4784 C.ar    1  UNL1        0.0025
     20 C          62.5536   86.6880    9.0067 C.ar    1  UNL1        0.0207
     21 C          62.9718   85.3564    8.4574 C.ar    1  UNL1        0.0989
     22 N          63.1498   84.1869    9.3797 N.ar    1  UNL1       -0.2423
     23 C          62.9096   84.3491   10.8514 C.ar    1  UNL1        0.0989
     24 C          62.4914   85.6807   11.4008 C.ar    1  UNL1        0.0207
@<TRIPOS>BOND
     1    15    16    1
     2    16    17    1
     3    16    18    2
     4    18    19    1
     5    19    20   ar
     6    20    21   ar
     7    21    22   ar
     8    22    23   ar
     9    23    24   ar
    10    18     1    1
    11     1     2   ar
    12     2     3   ar
    13     3     4   ar
    14     4     7    1
    15     7     8   ar
    16     8     9   ar
    17     9    10   ar
    18    10    11   ar
    19    11    12    1
    20    11    13   ar
    21     4     5   ar
    22     5     6   ar
    23    24    19   ar
    24     6     1   ar
    25    13     7   ar
    26    12    14    1
@<TRIPOS>MOLECULE
*****
 24 26 0 0 0
SMALL
GASTEIGER

@<TRIPOS>ATOM
      1 C          63.5012   89.6374   12.9029 C.ar    1  UNL1       -0.0006
      2 C          63.5461   88.1398   12.9745 C.ar    1  UNL1       -0.0000
      3 C          62.9496   87.3179   11.8706 C.ar    1  UNL1        0.0000
      4 C          62.3082   87.9936   10.6950 C.ar    1  UNL1        0.0001
      5 C          62.2633   89.4912   10.6233 C.ar    1  UNL1        0.0000
      6 C          62.8598   90.3131   11.7272 C.ar    1  UNL1       -0.0000
      7 C          61.7118   87.1716    9.5911 C.ar    1  UNL1        0.0030
      8 C          62.5612   86.1824    8.8495 C.ar    1  UNL1        0.0002
      9 C          61.9647   85.3605    7.7456 C.ar    1  UNL1        0.0031
     10 C          60.5188   85.5278    7.3832 C.ar    1  UNL1        0.0366
     11 C          59.6693   86.5170    8.1248 C.ar    1  UNL1        0.1337
     12 O          58.2234   86.6842    7.7625 O.3     1  UNL1       -0.5055
     13 C          60.2658   87.3389    9.2287 C.ar    1  UNL1        0.0366
     14 H          57.8508   86.1708    7.0729 H       1  UNL1        0.2922
     15 C          62.3229   89.5274   15.6596 C.3     1  UNL1        0.0264
     16 C          63.5085   90.4043   15.3851 C.2     1  UNL1       -0.0436
     17 C          64.1051   91.2263   16.4891 C.3     1  UNL1        0.0264
     18 C          64.0977   90.4593   14.0068 C.2     1  UNL1       -0.0078
     19 C          65.2833   91.3363   13.7323 C.ar    1  UNL1        0.0025
     20 C          66.5547   91.1417   14.5040 C.ar    1  UNL1        0.0207
     21 C          67.7403   92.0187   14.2296 C.ar    1  UNL1        0.0989
     22 N          67.6544   93.0902   13.1834 N.ar    1  UNL1       -0.2423
     23 C          66.3830   93.2847   12.4117 C.ar    1  UNL1        0.0989
     24 C          65.1975   92.4078   12.6861 C.ar    1  UNL1        0.0207
@<TRIPOS>BOND
     1    15    16    1
     2    16    17    1
     3    16    18    2
     4    18    19    1
     5    19    20   ar
     6    20    21   ar
     7    21    22   ar
     8    22    23   ar
     9    23    24   ar
    10    18     1    1
    11     1     2   ar
    12     2     3   ar
    13     3     4   ar
    14     4     7    1
    15     7     8   ar
    16     8     9   ar
    17     9    10   ar
    18    10    11   ar
    19    11    12    1
    20    11    13   ar
    21     4     5   ar
    22     5     6   ar
    23    24    19   ar
    24     6     1   ar
    25    13     7   ar
    26    12    14    1
@<TRIPOS>MOLECULE
*****
 24 26 0 0 0
SMALL
GASTEIGER

@<TRIPOS>ATOM
      1 C          62.5899   88.9401   10.9147 C.ar    1  UNL1       -0.0006
      2 C          63.0338   88.7310   12.3322 C.ar    1  UNL1       -0.0000
      3 C          63.8777   89.7668   13.0143 C.ar    1  UNL1        0.0000
      4 C          64.2776   91.0115   12.2790 C.ar    1  UNL1        0.0001
      5 C          63.8337   91.2205   10.8615 C.ar    1  UNL1        0.0000
      6 C          62.9899   90.1848   10.1793 C.ar    1  UNL1       -0.0000
      7 C          65.1214   92.0472   12.9611 C.ar    1  UNL1        0.0030
      8 C          65.6576   93.2105   12.1807 C.ar    1  UNL1        0.0002
      9 C          66.5014   94.2462   12.8629 C.ar    1  UNL1        0.0031
     10 C          66.8090   94.1185   14.3255 C.ar    1  UNL1        0.0366
     11 C          66.2728   92.9551   15.1058 C.ar    1  UNL1        0.1337
     12 O          66.5803   92.8274   16.5684 O.3     1  UNL1       -0.5055
     13 C          65.4290   91.9195   14.4237 C.ar    1  UNL1        0.0366
     14 H          67.1074   93.4744   16.9945 H       1  UNL1        0.2922
     15 C          59.8979   89.6828    9.8186 C.3     1  UNL1        0.0264
     16 C          60.4002   88.2757    9.6845 C.2     1  UNL1       -0.0436
     17 C          59.5564   87.2400    9.0023 C.3     1  UNL1        0.0264
     18 C          61.7462   87.9044   10.2326 C.2     1  UNL1       -0.0078
     19 C          62.2484   86.4973   10.0984 C.ar    1  UNL1        0.0025
     20 C          62.7721   86.0103    8.7799 C.ar    1  UNL1        0.0207
     21 C          63.2742   84.6033    8.6459 C.ar    1  UNL1        0.0989
     22 N          63.2527   83.6832    9.8303 N.ar    1  UNL1       -0.2423
     23 C          62.7290   84.1701   11.1489 C.ar    1  UNL1        0.0989
     24 C          62.2268   85.5772   11.2829 C.ar    1  UNL1        0.0207
@<TRIPOS>BOND
     1    15    16    1
     2    16    17    1
     3    16    18    2
     4    18    19    1
     5    19    20   ar
     6    20    21   ar
     7    21    22   ar
     8    22    23   ar
     9    23    24   ar
    10    18     1    1
    11     1     2   ar
    12     2     3   ar
    13     3     4   ar
    14     4     7    1
    15     7     8   ar
    16     8     9   ar
    17     9    10   ar
    18    10    11   ar
    19    11    12    1
    20    11    13   ar
    21     4     5   ar
    22     5     6   ar
    23    24    19   ar
    24     6     1   ar
    25    13     7   ar
    26    12    14    1
@<TRIPOS>MOLECULE
*****
 24 26 0 0 0
SMALL
GASTEIGER

@<TRIPOS>ATOM
      1 C          64.3110   91.3015   11.6587 C.ar    1  UNL1       -0.0006
      2 C          63.9119   90.0192   12.3269 C.ar    1  UNL1       -0.0000
      3 C          62.9363   89.0969   11.6579 C.ar    1  UNL1        0.0000
      4 C          62.3598   89.4568   10.3207 C.ar    1  UNL1        0.0001
      5 C          62.7590   90.7391    9.6525 C.ar    1  UNL1        0.0000
      6 C          63.7345   91.6614   10.3215 C.ar    1  UNL1       -0.0000
      7 C          61.3843   88.5345    9.6517 C.ar    1  UNL1        0.0030
      8 C          61.4478   87.0587    9.9121 C.ar    1  UNL1        0.0002
      9 C          60.4722   86.1364    9.2431 C.ar    1  UNL1        0.0031
     10 C          59.4331   86.6899    8.3137 C.ar    1  UNL1        0.0366
     11 C          59.3695   88.1658    8.0533 C.ar    1  UNL1        0.1337
     12 O          58.3304   88.7193    7.1239 O.3     1  UNL1       -0.5055
     13 C          60.3451   89.0881    8.7223 C.ar    1  UNL1        0.0366
     14 H          57.7210   88.1432    6.7060 H       1  UNL1        0.2922
     15 C          64.6260   91.2443   14.6416 C.3     1  UNL1        0.0264
     16 C          65.4441   92.1952   13.8191 C.2     1  UNL1       -0.0436
     17 C          66.4197   93.1176   14.4881 C.3     1  UNL1        0.0264
     18 C          65.2866   92.2238   12.3277 C.2     1  UNL1       -0.0078
     19 C          66.1048   93.1747   11.5052 C.ar    1  UNL1        0.0025
     20 C          65.8567   94.6511   11.5977 C.ar    1  UNL1        0.0207
     21 C          66.6749   95.6020   10.7753 C.ar    1  UNL1        0.0989
     22 N          67.7410   95.0765    9.8604 N.ar    1  UNL1       -0.2423
     23 C          67.9891   93.6000    9.7679 C.ar    1  UNL1        0.0989
     24 C          67.1709   92.6492   10.5903 C.ar    1  UNL1        0.0207
@<TRIPOS>BOND
     1    15    16    1
     2    16    17    1
     3    16    18    2
     4    18    19    1
     5    19    20   ar
     6    20    21   ar
     7    21    22   ar
     8    22    23   ar
     9    23    24   ar
    10    18     1    1
    11     1     2   ar
    12     2     3   ar
    13     3     4   ar
    14     4     7    1
    15     7     8   ar
    16     8     9   ar
    17     9    10   ar
    18    10    11   ar
    19    11    12    1
    20    11    13   ar
    21     4     5   ar
    22     5     6   ar
    23    24    19   ar
    24     6     1   ar
    25    13     7   ar
    26    12    14    1
@<TRIPOS>MOLECULE
*****
 24 26 0 0 0
SMALL
GASTEIGER

@<TRIPOS>ATOM
      1 C          62.6225   88.7128   11.2195 C.ar    1  UNL1       -0.0006
      2 C          63.0852   88.1934   12.5484 C.ar    1  UNL1       -0.0000
      3 C          63.8984   89.0698   13.4544 C.ar    1  UNL1        0.0000
      4 C          64.2489   90.4655   13.0313 C.ar    1  UNL1        0.0001
      5 C          63.7862   90.9849   11.7024 C.ar    1  UNL1        0.0000
      6 C          62.9730   90.1086   10.7965 C.ar    1  UNL1       -0.0000
      7 C          65.0621   91.3418   13.9372 C.ar    1  UNL1        0.0030
      8 C          66.3477   91.9394   13.4470 C.ar    1  UNL1        0.0002
      9 C          67.1609   92.8158   14.3530 C.ar    1  UNL1        0.0031
     10 C          66.6886   93.0945   15.7491 C.ar    1  UNL1        0.0366
     11 C          65.4030   92.4970   16.2393 C.ar    1  UNL1        0.1337
     12 O          64.9307   92.7757   17.6354 O.3     1  UNL1       -0.5055
     13 C          64.5898   91.6206   15.3334 C.ar    1  UNL1        0.0366
     14 H          65.4387   93.3231   18.2013 H       1  UNL1        0.2922
     15 C          60.0271   89.7144   10.0967 C.3     1  UNL1        0.0264
     16 C          60.5116   88.3373    9.7522 C.2     1  UNL1       -0.0436
     17 C          59.6984   87.4609    8.8462 C.3     1  UNL1        0.0264
     18 C          61.8093   87.8365   10.3136 C.2     1  UNL1       -0.0078
     19 C          62.2938   86.4593    9.9690 C.ar    1  UNL1        0.0025
     20 C          62.3871   85.4085   11.0353 C.ar    1  UNL1        0.0207
     21 C          62.8716   84.0313   10.6908 C.ar    1  UNL1        0.0989
     22 N          63.2627   83.7050    9.2799 N.ar    1  UNL1       -0.2423
     23 C          63.1693   84.7558    8.2136 C.ar    1  UNL1        0.0989
     24 C          62.6848   86.1329    8.5582 C.ar    1  UNL1        0.0207
@<TRIPOS>BOND
     1    15    16    1
     2    16    17    1
     3    16    18    2
     4    18    19    1
     5    19    20   ar
     6    20    21   ar
     7    21    22   ar
     8    22    23   ar
     9    23    24   ar
    10    18     1    1
    11     1     2   ar
    12     2     3   ar
    13     3     4   ar
    14     4     7    1
    15     7     8   ar
    16     8     9   ar
    17     9    10   ar
    18    10    11   ar
    19    11    12    1
    20    11    13   ar
    21     4     5   ar
    22     5     6   ar
    23    24    19   ar
    24     6     1   ar
    25    13     7   ar
    26    12    14    1
@<TRIPOS>MOLECULE
*****
 24 26 0 0 0
SMALL
GASTEIGER

@<TRIPOS>ATOM
      1 C          63.2644   86.5716   12.5758 C.ar    1  UNL1       -0.0006
      2 C          62.9968   87.9312   12.0014 C.ar    1  UNL1       -0.0000
      3 C          63.4480   89.1582   12.7370 C.ar    1  UNL1        0.0000
      4 C          64.1668   89.0256   14.0468 C.ar    1  UNL1        0.0001
      5 C          64.4344   87.6660   14.6212 C.ar    1  UNL1        0.0000
      6 C          63.9832   86.4390   13.8857 C.ar    1  UNL1       -0.0000
      7 C          64.6180   90.2525   14.7823 C.ar    1  UNL1        0.0030
      8 C          63.8686   90.7178   15.9955 C.ar    1  UNL1        0.0002
      9 C          64.3198   91.9448   16.7309 C.ar    1  UNL1        0.0031
     10 C          65.5205   92.7065   16.2532 C.ar    1  UNL1        0.0366
     11 C          66.2699   92.2413   15.0399 C.ar    1  UNL1        0.1337
     12 O          67.4705   93.0030   14.5622 O.3     1  UNL1       -0.5055
     13 C          65.8187   91.0143   14.3045 C.ar    1  UNL1        0.0366
     14 H          67.7523   93.7694   15.0216 H       1  UNL1        0.2922
     15 C          63.2775   83.9069   13.9540 C.3     1  UNL1        0.0264
     16 C          62.8197   84.0123   12.5294 C.2     1  UNL1       -0.0436
     17 C          62.3685   82.7853   11.7939 C.3     1  UNL1        0.0264
     18 C          62.8132   85.3446   11.8404 C.2     1  UNL1       -0.0078
     19 C          62.3554   85.4500   10.4158 C.ar    1  UNL1        0.0025
     20 C          63.2188   84.9204    9.3094 C.ar    1  UNL1        0.0207
     21 C          62.7610   85.0257    7.8849 C.ar    1  UNL1        0.0989
     22 N          61.4398   85.6607    7.5668 N.ar    1  UNL1       -0.2423
     23 C          60.5764   86.1903    8.6731 C.ar    1  UNL1        0.0989
     24 C          61.0342   86.0850   10.0976 C.ar    1  UNL1        0.0207
@<TRIPOS>BOND
     1    15    16    1
     2    16    17    1
     3    16    18    2
     4    18    19    1
     5    19    20   ar
     6    20    21   ar
     7    21    22   ar
     8    22    23   ar
     9    23    24   ar
    10    18     1    1
    11     1     2   ar
    12     2     3   ar
    13     3     4   ar
    14     4     7    1
    15     7     8   ar
    16     8     9   ar
    17     9    10   ar
    18    10    11   ar
    19    11    12    1
    20    11    13   ar
    21     4     5   ar
    22     5     6   ar
    23    24    19   ar
    24     6     1   ar
    25    13     7   ar
    26    12    14    1
@<TRIPOS>MOLECULE
*****
 24 26 0 0 0
SMALL
GASTEIGER

@<TRIPOS>ATOM
      1 C          63.1910   87.8282   12.4434 C.ar    1  UNL1       -0.0006
      2 C          63.8935   87.0970   13.5487 C.ar    1  UNL1       -0.0000
      3 C          63.7424   85.6103   13.6790 C.ar    1  UNL1        0.0000
      4 C          62.8888   84.8549   12.7040 C.ar    1  UNL1        0.0001
      5 C          62.1864   85.5861   11.5986 C.ar    1  UNL1        0.0000
      6 C          62.3375   87.0728   11.4683 C.ar    1  UNL1       -0.0000
      7 C          62.7377   83.3683   12.8343 C.ar    1  UNL1        0.0030
      8 C          62.3790   82.7641   14.1596 C.ar    1  UNL1        0.0002
      9 C          62.2279   81.2774   14.2899 C.ar    1  UNL1        0.0031
     10 C          62.4355   80.3949   13.0949 C.ar    1  UNL1        0.0366
     11 C          62.7942   80.9990   11.7696 C.ar    1  UNL1        0.1337
     12 O          63.0018   80.1165   10.5746 O.3     1  UNL1       -0.5055
     13 C          62.9453   82.4856   11.6393 C.ar    1  UNL1        0.0366
     14 H          62.9075   79.1878   10.6560 H       1  UNL1        0.2922
     15 C          62.4121   89.1971    9.8900 C.3     1  UNL1        0.0264
     16 C          62.9527   89.9993   11.0364 C.2     1  UNL1       -0.0436
     17 C          63.1038   91.4860   10.9061 C.3     1  UNL1        0.0264
     18 C          63.3421   89.3149   12.3130 C.2     1  UNL1       -0.0078
     19 C          63.8827   90.1172   13.4594 C.ar    1  UNL1        0.0025
     20 C          65.1320   90.9286   13.2838 C.ar    1  UNL1        0.0207
     21 C          65.6725   91.7309   14.4302 C.ar    1  UNL1        0.0989
     22 N          64.9638   91.7217   15.7521 N.ar    1  UNL1       -0.2423
     23 C          63.7145   90.9103   15.9278 C.ar    1  UNL1        0.0989
     24 C          63.1740   90.1080   14.7814 C.ar    1  UNL1        0.0207
@<TRIPOS>BOND
     1    15    16    1
     2    16    17    1
     3    16    18    2
     4    18    19    1
     5    19    20   ar
     6    20    21   ar
     7    21    22   ar
     8    22    23   ar
     9    23    24   ar
    10    18     1    1
    11     1     2   ar
    12     2     3   ar
    13     3     4   ar
    14     4     7    1
    15     7     8   ar
    16     8     9   ar
    17     9    10   ar
    18    10    11   ar
    19    11    12    1
    20    11    13   ar
    21     4     5   ar
    22     5     6   ar
    23    24    19   ar
    24     6     1   ar
    25    13     7   ar
    26    12    14    1
