@<TRIPOS>MOLECULE
*****
 46 52 0 0 0
SMALL
GASTEIGER

@<TRIPOS>ATOM
      1 C          60.3252   88.4349    8.3223 C.3     1  UNL1        0.1543
      2 O          58.1522   89.8764    6.8392 O.2     1  UNL1       -0.2526
      3 C          59.5813   90.0277    6.4093 C.2     1  UNL1        0.3043
      4 N          60.6678   89.3069    7.1509 N.am    1  UNL1       -0.2822
      5 N          59.9238   90.8996    5.2379 N.am    1  UNL1       -0.2641
      6 C          61.3530   91.0509    4.8079 C.3     1  UNL1        0.0967
      7 C          61.6955   91.9228    3.6365 C.3     1  UNL1        0.0418
      8 C          60.6089   92.6436    2.8949 C.3     1  UNL1        0.0848
      9 C          59.1799   92.4924    3.3248 C.3     1  UNL1        0.0418
     10 C          58.8373   91.6204    4.4963 C.3     1  UNL1        0.0967
     11 H          61.6058   89.4061    6.8687 H       1  UNL1        0.1514
     12 N          60.9515   93.5156    1.7235 N.am    1  UNL1       -0.2422
     13 C          60.0238   93.8992    0.6088 C.2     1  UNL1        0.3310
     14 O          58.5909   93.4782    0.4700 O.2     1  UNL1       -0.2501
     15 N          60.7808   94.7778   -0.3426 N.am    1  UNL1       -0.1647
     16 C          62.1763   94.9371    0.1840 C.2     1  UNL1        0.0706
     17 C          63.3645   95.6917   -0.3342 C.3     1  UNL1        0.0705
     18 C          64.6583   95.6663    0.4245 C.2     1  UNL1       -0.0199
     19 C          64.7638   94.8862    1.7013 C.2     1  UNL1       -0.0029
     20 C          63.5755   94.1315    2.2196 C.2     1  UNL1        0.0156
     21 C          62.2818   94.1570    1.4609 C.2     1  UNL1        0.0668
     22 C          60.1076   89.0467    9.6745 C.2     1  UNL1        0.2439
     23 O          58.7497   88.9985   10.3098 O.2     1  UNL1       -0.2731
     24 N          61.2480   89.7068   10.3913 N.am    1  UNL1       -0.2781
     25 C          61.0304   90.3187   11.7434 C.3     1  UNL1        0.0948
     26 C          62.1708   90.9788   12.4602 C.3     1  UNL1        0.0375
     27 C          63.5287   91.0271   11.8249 C.3     1  UNL1        0.0609
     28 C          63.7463   90.4152   10.4728 C.3     1  UNL1        0.0375
     29 C          62.6059   89.7551    9.7559 C.3     1  UNL1        0.0948
     30 N          64.6691   91.6871   12.5417 N.3     1  UNL1       -0.2738
     31 C          65.1208   91.1650   13.8734 C.3     1  UNL1        0.0720
     32 C          66.2611   91.8251   14.5902 C.3     1  UNL1        0.0174
     33 C          66.9498   93.0073   13.9754 C.3     1  UNL1        0.0029
     34 C          66.4982   93.5295   12.6437 C.3     1  UNL1        0.0174
     35 C          65.3578   92.8694   11.9268 C.3     1  UNL1        0.0720
     36 C          60.2003   86.9511    8.1416 C.3     1  UNL1        0.0553
     37 C          61.2483   86.0363    8.7029 C.ar    1  UNL1       -0.0200
     38 C          62.1844   85.3130    7.7806 C.ar    1  UNL1       -0.0042
     39 C          63.2323   84.3982    8.3418 C.ar    1  UNL1       -0.0003
     40 C          63.3442   84.2067    9.8254 C.ar    1  UNL1       -0.0000
     41 C          64.3921   83.2920   10.3866 C.ar    1  UNL1       -0.0000
     42 C          64.5040   83.1005   11.8701 C.ar    1  UNL1       -0.0000
     43 C          63.5679   83.8238   12.7923 C.ar    1  UNL1       -0.0000
     44 C          62.5200   84.7385   12.2312 C.ar    1  UNL1       -0.0000
     45 C          62.4081   84.9300   10.7477 C.ar    1  UNL1       -0.0003
     46 C          61.3601   85.8448   10.1864 C.ar    1  UNL1       -0.0042
@<TRIPOS>BOND
     1     2     3    2
     2     3     4   am
     3     4     1    1
     4     1    36    1
     5    36    37    1
     6    37    38   ar
     7    38    39   ar
     8    39    40   ar
     9    40    41   ar
    10    41    42   ar
    11    42    43   ar
    12    43    44   ar
    13    44    45   ar
    14    45    46   ar
    15     1    22    1
    16    22    23    2
    17    22    24   am
    18    24    25    1
    19    25    26    1
    20    26    27    1
    21    27    30    1
    22    30    31    1
    23    31    32    1
    24    32    33    1
    25    33    34    1
    26    34    35    1
    27    27    28    1
    28    28    29    1
    29     3     5   am
    30     5     6    1
    31     6     7    1
    32     7     8    1
    33     8    12    1
    34    12    13   am
    35    13    14    2
    36    13    15    1
    37    15    16    2
    38    16    17    1
    39    17    18    1
    40    18    19    2
    41    19    20    1
    42    20    21    2
    43     8     9    1
    44     9    10    1
    45    46    37   ar
    46    29    24    1
    47    10     5    1
    48    45    40   ar
    49    35    30    1
    50    21    12    1
    51    21    16    1
    52     4    11    1
@<TRIPOS>MOLECULE
*****
 46 52 0 0 0
SMALL
GASTEIGER

@<TRIPOS>ATOM
      1 C          60.3466   88.2891    8.3921 C.3     1  UNL1        0.1543
      2 O          57.9777   89.3369    6.8788 O.2     1  UNL1       -0.2526
      3 C          59.3578   89.8137    6.5352 C.2     1  UNL1        0.3043
      4 N          60.5423   89.2898    7.2919 N.am    1  UNL1       -0.2822
      5 N          59.5534   90.8144    5.4351 N.am    1  UNL1       -0.2641
      6 C          60.9336   91.2912    5.0915 C.3     1  UNL1        0.0967
      7 C          61.1292   92.2918    3.9914 C.3     1  UNL1        0.0418
      8 C          59.9447   92.8157    3.2347 C.3     1  UNL1        0.0848
      9 C          58.5646   92.3390    3.5782 C.3     1  UNL1        0.0418
     10 C          58.3689   91.3383    4.6784 C.3     1  UNL1        0.0967
     11 H          61.4481   89.6027    7.0664 H       1  UNL1        0.1514
     12 N          60.1403   93.8164    2.1346 N.am    1  UNL1       -0.2422
     13 C          60.0867   95.3084    2.2800 C.2     1  UNL1        0.3310
     14 O          59.8282   96.0616    3.5511 O.2     1  UNL1       -0.2501
     15 N          60.3371   95.9149    0.9311 N.am    1  UNL1       -0.1647
     16 C          60.5455   94.7978   -0.0480 C.2     1  UNL1        0.0706
     17 C          60.8302   94.7939   -1.5207 C.3     1  UNL1        0.0705
     18 C          60.9934   93.4931   -2.2497 C.2     1  UNL1       -0.0199
     19 C          60.8717   92.1962   -1.5059 C.2     1  UNL1       -0.0029
     20 C          60.5869   92.2000   -0.0331 C.2     1  UNL1        0.0156
     21 C          60.4238   93.5008    0.6958 C.2     1  UNL1        0.0668
     22 C          60.1585   88.7554    9.8053 C.2     1  UNL1        0.2439
     23 O          58.8648   88.4902   10.5166 O.2     1  UNL1       -0.2731
     24 N          61.2641   89.4867   10.5071 N.am    1  UNL1       -0.2781
     25 C          61.0761   89.9530   11.9204 C.3     1  UNL1        0.0948
     26 C          62.1817   90.6844   12.6223 C.3     1  UNL1        0.0375
     27 C          63.4754   90.9495   11.9109 C.3     1  UNL1        0.0609
     28 C          63.6635   90.4833   10.4977 C.3     1  UNL1        0.0375
     29 C          62.5578   89.7518    9.7958 C.3     1  UNL1        0.0948
     30 N          64.5810   91.6809   12.6128 N.3     1  UNL1       -0.2738
     31 C          64.9752   91.2868   14.0054 C.3     1  UNL1        0.0720
     32 C          66.0808   92.0182   14.7073 C.3     1  UNL1        0.0174
     33 C          66.7923   93.1436   14.0166 C.3     1  UNL1        0.0029
     34 C          66.3982   93.5377   12.6240 C.3     1  UNL1        0.0174
     35 C          65.2925   92.8063   11.9221 C.3     1  UNL1        0.0720
     36 C          60.3390   86.8222    8.0790 C.3     1  UNL1        0.0553
     37 C          61.3719   85.9201    8.6871 C.ar    1  UNL1       -0.0200
     38 C          62.3541   85.2048    7.8077 C.ar    1  UNL1       -0.0042
     39 C          63.3869   84.3028    8.4157 C.ar    1  UNL1       -0.0003
     40 C          63.4375   84.1162    9.9033 C.ar    1  UNL1       -0.0000
     41 C          64.4703   83.2142   10.5113 C.ar    1  UNL1       -0.0000
     42 C          64.5208   83.0276   11.9987 C.ar    1  UNL1       -0.0000
     43 C          63.5386   83.7430   12.8782 C.ar    1  UNL1       -0.0000
     44 C          62.5058   84.6450   12.2702 C.ar    1  UNL1       -0.0000
     45 C          62.4553   84.8316   10.7827 C.ar    1  UNL1       -0.0003
     46 C          61.4224   85.7336   10.1746 C.ar    1  UNL1       -0.0042
@<TRIPOS>BOND
     1     2     3    2
     2     3     4   am
     3     4     1    1
     4     1    36    1
     5    36    37    1
     6    37    38   ar
     7    38    39   ar
     8    39    40   ar
     9    40    41   ar
    10    41    42   ar
    11    42    43   ar
    12    43    44   ar
    13    44    45   ar
    14    45    46   ar
    15     1    22    1
    16    22    23    2
    17    22    24   am
    18    24    25    1
    19    25    26    1
    20    26    27    1
    21    27    30    1
    22    30    31    1
    23    31    32    1
    24    32    33    1
    25    33    34    1
    26    34    35    1
    27    27    28    1
    28    28    29    1
    29     3     5   am
    30     5     6    1
    31     6     7    1
    32     7     8    1
    33     8    12    1
    34    12    13   am
    35    13    14    2
    36    13    15    1
    37    15    16    2
    38    16    17    1
    39    17    18    1
    40    18    19    2
    41    19    20    1
    42    20    21    2
    43     8     9    1
    44     9    10    1
    45    46    37   ar
    46    29    24    1
    47    10     5    1
    48    45    40   ar
    49    35    30    1
    50    21    12    1
    51    21    16    1
    52     4    11    1
@<TRIPOS>MOLECULE
*****
 46 52 0 0 0
SMALL
GASTEIGER

@<TRIPOS>ATOM
      1 C          60.2810   89.0686    8.1164 C.3     1  UNL1        0.1543
      2 O          58.2121   90.5009    6.4830 O.2     1  UNL1       -0.2526
      3 C          59.6488   90.5140    6.0521 C.2     1  UNL1        0.3043
      4 N          60.6833   89.7978    6.8688 N.am    1  UNL1       -0.2822
      5 N          60.0511   91.2432    4.8046 N.am    1  UNL1       -0.2641
      6 C          61.4878   91.2563    4.3736 C.3     1  UNL1        0.0967
      7 C          61.8900   91.9855    3.1261 C.3     1  UNL1        0.0418
      8 C          60.8556   92.7016    2.3094 C.3     1  UNL1        0.0848
      9 C          59.4189   92.6886    2.7403 C.3     1  UNL1        0.0418
     10 C          59.0166   91.9593    3.9879 C.3     1  UNL1        0.0967
     11 H          61.6263   89.8064    6.5860 H       1  UNL1        0.1514
     12 N          61.2578   93.4309    1.0619 N.am    1  UNL1       -0.2422
     13 C          62.4170   94.3732    0.9263 C.2     1  UNL1        0.3310
     14 O          63.3774   94.7517    2.0145 O.2     1  UNL1       -0.2501
     15 N          62.4471   94.8706   -0.4885 N.am    1  UNL1       -0.1647
     16 C          61.3065   94.2356   -1.2275 C.2     1  UNL1        0.0706
     17 C          60.8422   94.3527   -2.6489 C.3     1  UNL1        0.0705
     18 C          59.6429   93.5800   -3.1123 C.2     1  UNL1       -0.0199
     19 C          58.9079   92.6903   -2.1541 C.2     1  UNL1       -0.0029
     20 C          59.3721   92.5732   -0.7326 C.2     1  UNL1        0.0156
     21 C          60.5714   93.3458   -0.2692 C.2     1  UNL1        0.0668
     22 C          60.2639   87.5688    8.1360 C.2     1  UNL1        0.2439
     23 O          59.5158   86.8134    7.0778 O.2     1  UNL1       -0.2731
     24 N          60.9948   86.8245    9.2138 N.am    1  UNL1       -0.2781
     25 C          60.9776   85.3246    9.2334 C.3     1  UNL1        0.0948
     26 C          61.7086   84.5803   10.3112 C.3     1  UNL1        0.0375
     27 C          62.4566   85.3357   11.3694 C.3     1  UNL1        0.0609
     28 C          62.4738   86.8354   11.3498 C.3     1  UNL1        0.0375
     29 C          61.7429   87.5799   10.2720 C.3     1  UNL1        0.0948
     30 N          63.1875   84.5913   12.4472 N.3     1  UNL1       -0.2738
     31 C          63.8592   85.3455   13.5563 C.3     1  UNL1        0.0720
     32 C          64.5901   84.6011   14.6341 C.3     1  UNL1        0.0174
     33 C          64.6494   83.1026   14.6028 C.3     1  UNL1        0.0029
     34 C          63.9778   82.3485   13.4937 C.3     1  UNL1        0.0174
     35 C          63.2468   83.0928   12.4158 C.3     1  UNL1        0.0720
     36 C          59.8959   89.8391    9.3444 C.3     1  UNL1        0.0553
     37 C          60.9354   90.1864   10.3686 C.ar    1  UNL1       -0.0200
     38 C          60.7091   89.8464   11.8119 C.ar    1  UNL1       -0.0042
     39 C          61.7485   90.1936   12.8362 C.ar    1  UNL1       -0.0003
     40 C          63.0143   90.8808   12.4171 C.ar    1  UNL1       -0.0000
     41 C          64.0537   91.2279   13.4413 C.ar    1  UNL1       -0.0000
     42 C          65.3194   91.9151   13.0222 C.ar    1  UNL1       -0.0000
     43 C          65.5457   92.2551   11.5789 C.ar    1  UNL1       -0.0000
     44 C          64.5063   91.9079   10.5547 C.ar    1  UNL1       -0.0000
     45 C          63.2406   91.2207   10.9738 C.ar    1  UNL1       -0.0003
     46 C          62.2011   90.8735    9.9495 C.ar    1  UNL1       -0.0042
@<TRIPOS>BOND
     1     2     3    2
     2     3     4   am
     3     4     1    1
     4     1    36    1
     5    36    37    1
     6    37    38   ar
     7    38    39   ar
     8    39    40   ar
     9    40    41   ar
    10    41    42   ar
    11    42    43   ar
    12    43    44   ar
    13    44    45   ar
    14    45    46   ar
    15     1    22    1
    16    22    23    2
    17    22    24   am
    18    24    25    1
    19    25    26    1
    20    26    27    1
    21    27    30    1
    22    30    31    1
    23    31    32    1
    24    32    33    1
    25    33    34    1
    26    34    35    1
    27    27    28    1
    28    28    29    1
    29     3     5   am
    30     5     6    1
    31     6     7    1
    32     7     8    1
    33     8    12    1
    34    12    13   am
    35    13    14    2
    36    13    15    1
    37    15    16    2
    38    16    17    1
    39    17    18    1
    40    18    19    2
    41    19    20    1
    42    20    21    2
    43     8     9    1
    44     9    10    1
    45    46    37   ar
    46    29    24    1
    47    10     5    1
    48    45    40   ar
    49    35    30    1
    50    21    12    1
    51    21    16    1
    52     4    11    1
@<TRIPOS>MOLECULE
*****
 46 52 0 0 0
SMALL
GASTEIGER

@<TRIPOS>ATOM
      1 C          60.2749   89.0771    8.1298 C.3     1  UNL1        0.1543
      2 O          58.1866   90.4574    6.4763 O.2     1  UNL1       -0.2526
      3 C          59.6276   90.5126    6.0632 C.2     1  UNL1        0.3043
      4 N          60.6717   89.8224    6.8899 N.am    1  UNL1       -0.2822
      5 N          60.0243   91.2578    4.8234 N.am    1  UNL1       -0.2641
      6 C          61.4653   91.3130    4.4103 C.3     1  UNL1        0.0967
      7 C          61.8621   92.0583    3.1705 C.3     1  UNL1        0.0418
      8 C          60.8180   92.7484    2.3438 C.3     1  UNL1        0.0848
      9 C          59.3770   92.6933    2.7569 C.3     1  UNL1        0.0418
     10 C          58.9802   91.9480    3.9967 C.3     1  UNL1        0.0967
     11 H          61.6175   89.8586    6.6188 H       1  UNL1        0.1514
     12 N          61.2147   93.4937    1.1040 N.am    1  UNL1       -0.2422
     13 C          60.3599   93.7026   -0.1108 C.2     1  UNL1        0.3310
     14 O          58.9582   93.2028   -0.2989 O.2     1  UNL1       -0.2501
     15 N          61.1528   94.4989   -1.1043 N.am    1  UNL1       -0.1647
     16 C          62.4978   94.7823   -0.5035 C.2     1  UNL1        0.0706
     17 C          63.6925   95.5257   -1.0229 C.3     1  UNL1        0.0705
     18 C          64.9256   95.6480   -0.1775 C.2     1  UNL1       -0.0199
     19 C          64.9638   95.0267    1.1872 C.2     1  UNL1       -0.0029
     20 C          63.7691   94.2832    1.7067 C.2     1  UNL1        0.0156
     21 C          62.5360   94.1610    0.8613 C.2     1  UNL1        0.0668
     22 C          60.2599   87.5772    8.1307 C.2     1  UNL1        0.2439
     23 O          59.5192   86.8338    7.0590 O.2     1  UNL1       -0.2731
     24 N          60.9857   86.8207    9.2035 N.am    1  UNL1       -0.2781
     25 C          60.9708   85.3207    9.2045 C.3     1  UNL1        0.0948
     26 C          61.6966   84.5642   10.2773 C.3     1  UNL1        0.0375
     27 C          62.4373   85.3076   11.3491 C.3     1  UNL1        0.0609
     28 C          62.4523   86.8075   11.3481 C.3     1  UNL1        0.0375
     29 C          61.7264   87.5641   10.2753 C.3     1  UNL1        0.0948
     30 N          63.1631   84.5511   12.4219 N.3     1  UNL1       -0.2738
     31 C          63.2340   83.0538   12.3667 C.3     1  UNL1        0.0720
     32 C          63.9598   82.2972   13.4394 C.3     1  UNL1        0.0174
     33 C          64.6147   83.0380   14.5674 C.3     1  UNL1        0.0029
     34 C          64.5439   84.5353   14.6226 C.3     1  UNL1        0.0174
     35 C          63.8180   85.2919   13.5498 C.3     1  UNL1        0.0720
     36 C          59.8930   89.8318    9.3686 C.3     1  UNL1        0.0553
     37 C          60.9389   90.1844   10.3843 C.ar    1  UNL1       -0.0200
     38 C          60.7276   89.8403   11.8289 C.ar    1  UNL1       -0.0042
     39 C          61.7735   90.1929   12.8447 C.ar    1  UNL1       -0.0003
     40 C          63.0308   90.8897   12.4158 C.ar    1  UNL1       -0.0000
     41 C          64.0767   91.2423   13.4315 C.ar    1  UNL1       -0.0000
     42 C          65.3338   91.9391   13.0026 C.ar    1  UNL1       -0.0000
     43 C          65.5451   92.2832   11.5580 C.ar    1  UNL1       -0.0000
     44 C          64.4992   91.9306   10.5423 C.ar    1  UNL1       -0.0000
     45 C          63.2421   91.2339   10.9712 C.ar    1  UNL1       -0.0003
     46 C          62.1961   90.8812    9.9554 C.ar    1  UNL1       -0.0042
@<TRIPOS>BOND
     1     2     3    2
     2     3     4   am
     3     4     1    1
     4     1    36    1
     5    36    37    1
     6    37    38   ar
     7    38    39   ar
     8    39    40   ar
     9    40    41   ar
    10    41    42   ar
    11    42    43   ar
    12    43    44   ar
    13    44    45   ar
    14    45    46   ar
    15     1    22    1
    16    22    23    2
    17    22    24   am
    18    24    25    1
    19    25    26    1
    20    26    27    1
    21    27    30    1
    22    30    31    1
    23    31    32    1
    24    32    33    1
    25    33    34    1
    26    34    35    1
    27    27    28    1
    28    28    29    1
    29     3     5   am
    30     5     6    1
    31     6     7    1
    32     7     8    1
    33     8    12    1
    34    12    13   am
    35    13    14    2
    36    13    15    1
    37    15    16    2
    38    16    17    1
    39    17    18    1
    40    18    19    2
    41    19    20    1
    42    20    21    2
    43     8     9    1
    44     9    10    1
    45    46    37   ar
    46    29    24    1
    47    10     5    1
    48    45    40   ar
    49    35    30    1
    50    21    12    1
    51    21    16    1
    52     4    11    1
@<TRIPOS>MOLECULE
*****
 46 52 0 0 0
SMALL
GASTEIGER

@<TRIPOS>ATOM
      1 C          60.1716   88.6841    7.9844 C.3     1  UNL1        0.1543
      2 O          60.1269   89.1704   10.9444 O.2     1  UNL1       -0.2526
      3 C          61.2277   89.7492   10.1058 C.2     1  UNL1        0.3043
      4 N          61.2501   89.5061    8.6258 N.am    1  UNL1       -0.2822
      5 N          62.3062   90.5711   10.7472 N.am    1  UNL1       -0.2641
      6 C          63.4070   91.1499    9.9086 C.3     1  UNL1        0.0967
      7 C          64.4855   91.9718   10.5500 C.3     1  UNL1        0.0418
      8 C          64.4631   92.2149   12.0300 C.3     1  UNL1        0.0848
      9 C          63.3623   91.6362   12.8686 C.3     1  UNL1        0.0418
     10 C          62.2838   90.8142   12.2272 C.3     1  UNL1        0.0967
     11 H          61.9726   89.8859    8.0754 H       1  UNL1        0.1514
     12 N          65.5416   93.0368   12.6714 N.am    1  UNL1       -0.2422
     13 C          66.0062   94.3894   12.2189 C.2     1  UNL1        0.3310
     14 O          65.4739   95.1575   11.0456 O.2     1  UNL1       -0.2501
     15 N          67.0965   94.8390   13.1457 N.am    1  UNL1       -0.1647
     16 C          67.3058   93.7643   14.1711 C.2     1  UNL1        0.0706
     17 C          68.2473   93.6560   15.3337 C.3     1  UNL1        0.0705
     18 C          68.2278   92.4338   16.2033 C.2     1  UNL1       -0.0199
     19 C          67.2668   91.3201   15.9101 C.2     1  UNL1       -0.0029
     20 C          66.3252   91.4283   14.7474 C.2     1  UNL1        0.0156
     21 C          66.3448   92.6504   13.8779 C.2     1  UNL1        0.0668
     22 C          60.2537   87.1867    8.0113 C.2     1  UNL1        0.2439
     23 O          59.6067   86.3804    6.9244 O.2     1  UNL1       -0.2731
     24 N          60.9828   86.4954    9.1250 N.am    1  UNL1       -0.2781
     25 C          61.0650   84.9979    9.1519 C.3     1  UNL1        0.0948
     26 C          61.7941   84.3066   10.2657 C.3     1  UNL1        0.0375
     27 C          62.4411   85.1129   11.3526 C.3     1  UNL1        0.0609
     28 C          62.3590   86.6103   11.3257 C.3     1  UNL1        0.0375
     29 C          61.6298   87.3017   10.2119 C.3     1  UNL1        0.0948
     30 N          63.1702   84.4216   12.4663 N.3     1  UNL1       -0.2738
     31 C          63.2332   82.9234   12.5054 C.3     1  UNL1        0.0720
     32 C          63.9623   82.2322   13.6192 C.3     1  UNL1        0.0174
     33 C          64.6285   83.0391   14.6939 C.3     1  UNL1        0.0029
     34 C          64.5656   84.5372   14.6549 C.3     1  UNL1        0.0174
     35 C          63.8364   85.2285   13.5411 C.3     1  UNL1        0.0720
     36 C          59.0110   89.3598    7.3162 C.3     1  UNL1        0.0553
     37 C          59.2452   90.2740    6.1502 C.ar    1  UNL1       -0.0200
     38 C          58.1092   91.0732    5.5838 C.ar    1  UNL1       -0.0042
     39 C          58.3434   91.9874    4.4179 C.ar    1  UNL1       -0.0003
     40 C          59.7136   92.1025    3.8184 C.ar    1  UNL1       -0.0000
     41 C          59.9477   93.0168    2.6525 C.ar    1  UNL1       -0.0000
     42 C          61.3179   93.1319    2.0531 C.ar    1  UNL1       -0.0000
     43 C          62.4539   92.3327    2.6196 C.ar    1  UNL1       -0.0000
     44 C          62.2197   91.4185    3.7854 C.ar    1  UNL1       -0.0000
     45 C          60.8496   91.3034    4.3849 C.ar    1  UNL1       -0.0003
     46 C          60.6154   90.3891    5.5508 C.ar    1  UNL1       -0.0042
@<TRIPOS>BOND
     1     2     3    2
     2     3     4   am
     3     4     1    1
     4     1    36    1
     5    36    37    1
     6    37    38   ar
     7    38    39   ar
     8    39    40   ar
     9    40    41   ar
    10    41    42   ar
    11    42    43   ar
    12    43    44   ar
    13    44    45   ar
    14    45    46   ar
    15     1    22    1
    16    22    23    2
    17    22    24   am
    18    24    25    1
    19    25    26    1
    20    26    27    1
    21    27    30    1
    22    30    31    1
    23    31    32    1
    24    32    33    1
    25    33    34    1
    26    34    35    1
    27    27    28    1
    28    28    29    1
    29     3     5   am
    30     5     6    1
    31     6     7    1
    32     7     8    1
    33     8    12    1
    34    12    13   am
    35    13    14    2
    36    13    15    1
    37    15    16    2
    38    16    17    1
    39    17    18    1
    40    18    19    2
    41    19    20    1
    42    20    21    2
    43     8     9    1
    44     9    10    1
    45    46    37   ar
    46    29    24    1
    47    10     5    1
    48    45    40   ar
    49    35    30    1
    50    21    12    1
    51    21    16    1
    52     4    11    1
