@<TRIPOS>MOLECULE
*****
 37 41 0 0 0
SMALL
GASTEIGER

@<TRIPOS>ATOM
      1 C          63.5525   88.1466   15.5065 C.3     1  UNL1        0.2246
      2 C          63.6612   86.6839   15.1926 C.2     1  UNL1        0.0436
      3 C          63.3942   85.6656   16.2612 C.2     1  UNL1        0.0288
      4 C          63.0185   86.1101   17.6437 C.2     1  UNL1        0.0896
      5 N          62.9098   87.5728   17.9577 N.am    1  UNL1       -0.1770
      6 C          63.1768   88.5911   16.8890 C.2     1  UNL1        0.2627
      7 O          63.0681   90.0538   17.2030 O.2     1  UNL1       -0.2719
      8 C          62.6046   90.1569   10.0161 C.3     1  UNL1        0.0312
      9 C          63.5330   90.8853   10.9422 C.2     1  UNL1        0.0125
     10 C          64.2284   92.1313   10.4798 C.2     1  UNL1        0.0007
     11 C          65.1568   92.8597   11.4058 C.2     1  UNL1        0.0564
     12 C          65.3898   92.3420   12.7943 C.2     1  UNL1        0.0513
     13 C          64.6944   91.0960   13.2566 C.2     1  UNL1        0.2235
     14 N          64.7275   90.3527   14.5591 N.2     1  UNL1       -0.0378
     15 C          63.8194   89.1649   14.4380 C.2     1  UNL1        0.3605
     16 N          63.2253   89.1741   13.0607 N.2     1  UNL1       -0.0547
     17 C          63.7660   90.3676   12.3306 C.3     1  UNL1        0.2975
     18 C          65.8522   94.1058   10.9434 C.2     1  UNL1        0.2459
     19 O          66.3365   95.1106   11.9463 O.2     1  UNL1       -0.2701
     20 N          66.0634   94.3470    9.4780 N.am    1  UNL1       -0.3025
     21 H          65.7456   93.6875    8.8198 H       1  UNL1        0.1497
     22 C          66.7588   95.5931    9.0156 C.3     1  UNL1        0.0720
     23 C          67.2117   96.4911    7.9027 C.3     1  UNL1        0.0213
     24 C          67.5103   96.8532    9.3275 C.3     1  UNL1        0.0213
     25 N          64.0368   86.2393   13.8101 N.pl3   1  UNL1       -0.3329
     26 H          64.2301   86.9078   13.1136 H       1  UNL1        0.1466
     27 C          64.1181   84.7764   13.4888 C.3     1  UNL1        0.1211
     28 C          63.0840   84.1441   12.6051 C.3     1  UNL1        0.1522
     29 O          62.4299   82.8587   13.0172 O.3     1  UNL1       -0.3783
     30 H          62.7866   82.5743   13.8732 H       1  UNL1        0.2109
     31 C          62.7042   84.7973   11.3093 C.ar    1  UNL1        0.0067
     32 C          63.4160   84.4222   10.0434 C.ar    1  UNL1       -0.0018
     33 C          63.0361   85.0754    8.7476 C.ar    1  UNL1        0.0006
     34 C          61.9443   86.1036    8.7177 C.ar    1  UNL1        0.0114
     35 C          61.2325   86.4786    9.9836 C.ar    1  UNL1        0.0574
     36 CL         60.1408   87.5068    9.9537 Cl      1  UNL1       -0.0823
     37 C          61.6124   85.8255   11.2794 C.ar    1  UNL1        0.0095
@<TRIPOS>BOND
     1     8     9    1
     2     9    10    2
     3    10    11    1
     4    11    18    1
     5    18    19    2
     6    18    20   am
     7    20    22    1
     8    22    23    1
     9    23    24    1
    10    11    12    2
    11    12    13    1
    12    13    14    2
    13    14    15    1
    14    15     1    1
    15     1     2    1
    16     2    25    1
    17    25    27    1
    18    27    28    1
    19    28    29    1
    20    28    31    1
    21    31    32   ar
    22    32    33   ar
    23    33    34   ar
    24    34    35   ar
    25    35    36    1
    26    35    37   ar
    27     2     3    2
    28     3     4    1
    29     4     5    2
    30     5     6    1
    31     6     7    2
    32    15    16    2
    33    16    17    1
    34    17     9    1
    35    24    22    1
    36    17    13    1
    37     6     1    1
    38    37    31   ar
    39    20    21    1
    40    25    26    1
    41    29    30    1
@<TRIPOS>MOLECULE
*****
 37 41 0 0 0
SMALL
GASTEIGER

@<TRIPOS>ATOM
      1 C          61.3638   88.2244    9.9008 C.3     1  UNL1        0.2246
      2 C          61.5668   86.8181    9.4198 C.2     1  UNL1        0.0436
      3 C          60.6498   86.2406    8.3826 C.2     1  UNL1        0.0288
      4 C          59.5299   87.0692    7.8265 C.2     1  UNL1        0.0896
      5 N          59.3270   88.4754    8.3075 N.am    1  UNL1       -0.1770
      6 C          60.2440   89.0530    9.3446 C.2     1  UNL1        0.2627
      7 O          60.0411   90.4592    9.8256 O.2     1  UNL1       -0.2719
      8 C          64.0436   87.7821   15.1646 C.3     1  UNL1        0.0312
      9 C          64.2647   88.9865   14.2983 C.2     1  UNL1        0.0125
     10 C          65.1694   90.0889   14.7633 C.2     1  UNL1        0.0007
     11 C          65.3905   91.2933   13.8971 C.2     1  UNL1        0.0564
     12 C          64.7070   91.3953   12.5657 C.2     1  UNL1        0.0513
     13 C          63.8024   90.2929   12.1007 C.2     1  UNL1        0.2235
     14 N          62.9987   90.1158   10.8466 N.2     1  UNL1       -0.0378
     15 C          62.2808   88.8020   10.9379 C.2     1  UNL1        0.3605
     16 N          62.6408   88.1670   12.2483 N.2     1  UNL1       -0.0547
     17 C          63.5812   89.0885   12.9670 C.3     1  UNL1        0.2975
     18 C          66.2953   92.3958   14.3621 C.2     1  UNL1        0.2459
     19 O          65.9381   93.8261   14.0853 O.2     1  UNL1       -0.2701
     20 N          67.5571   92.0678   15.1040 N.am    1  UNL1       -0.3025
     21 H          67.7914   91.1291   15.2857 H       1  UNL1        0.1497
     22 C          68.4617   93.1702   15.5690 C.3     1  UNL1        0.0720
     23 C          68.6609   94.5947   15.9948 C.3     1  UNL1        0.0213
     24 C          69.8294   93.6552   15.9488 C.3     1  UNL1        0.0213
     25 N          62.6866   85.9895    9.9758 N.pl3   1  UNL1       -0.3329
     26 H          63.3417   86.3950   10.5887 H       1  UNL1        0.1466
     27 C          62.8083   84.5429    9.5982 C.3     1  UNL1        0.1211
     28 C          63.5835   83.6022   10.4724 C.3     1  UNL1        0.1522
     29 O          64.7459   82.8401    9.9084 O.3     1  UNL1       -0.3783
     30 H          64.8599   83.0698    8.9729 H       1  UNL1        0.2109
     31 C          63.1963   83.4237   11.9105 C.ar    1  UNL1        0.0067
     32 C          63.6090   84.4432   12.9304 C.ar    1  UNL1       -0.0018
     33 C          63.2218   84.2647   14.3685 C.ar    1  UNL1        0.0006
     34 C          62.4219   83.0667   14.7868 C.ar    1  UNL1        0.0114
     35 C          62.0092   82.0472   13.7668 C.ar    1  UNL1        0.0574
     36 CL         61.2093   80.8492   14.1850 Cl      1  UNL1       -0.0823
     37 C          62.3964   82.2257   12.3287 C.ar    1  UNL1        0.0095
@<TRIPOS>BOND
     1     8     9    1
     2     9    10    2
     3    10    11    1
     4    11    18    1
     5    18    19    2
     6    18    20   am
     7    20    22    1
     8    22    23    1
     9    23    24    1
    10    11    12    2
    11    12    13    1
    12    13    14    2
    13    14    15    1
    14    15     1    1
    15     1     2    1
    16     2    25    1
    17    25    27    1
    18    27    28    1
    19    28    29    1
    20    28    31    1
    21    31    32   ar
    22    32    33   ar
    23    33    34   ar
    24    34    35   ar
    25    35    36    1
    26    35    37   ar
    27     2     3    2
    28     3     4    1
    29     4     5    2
    30     5     6    1
    31     6     7    2
    32    15    16    2
    33    16    17    1
    34    17     9    1
    35    24    22    1
    36    17    13    1
    37     6     1    1
    38    37    31   ar
    39    20    21    1
    40    25    26    1
    41    29    30    1
@<TRIPOS>MOLECULE
*****
 37 41 0 0 0
SMALL
GASTEIGER

@<TRIPOS>ATOM
      1 C          63.0915   83.7720   12.3002 C.3     1  UNL1        0.2246
      2 C          62.8764   83.6304   13.7780 C.2     1  UNL1        0.0436
      3 C          63.4384   82.4464   14.5076 C.2     1  UNL1        0.0288
      4 C          64.2156   81.4040   13.7595 C.2     1  UNL1        0.0896
      5 N          64.4307   81.5456   12.2818 N.am    1  UNL1       -0.1770
      6 C          63.8687   82.7297   11.5522 C.2     1  UNL1        0.2627
      7 O          64.0838   82.8713   10.0745 O.2     1  UNL1       -0.2719
      8 C          62.6235   89.6452   11.6915 C.3     1  UNL1        0.0312
      9 C          61.9008   88.7242   10.7537 C.2     1  UNL1        0.0125
     10 C          61.0528   89.2890    9.6528 C.2     1  UNL1        0.0007
     11 C          60.3301   88.3681    8.7151 C.2     1  UNL1        0.0564
     12 C          60.4554   86.8822    8.8780 C.2     1  UNL1        0.0513
     13 C          61.3035   86.3174    9.9789 C.2     1  UNL1        0.2235
     14 N          61.6146   84.9067   10.3830 N.2     1  UNL1       -0.0378
     15 C          62.5296   84.9560   11.5706 C.2     1  UNL1        0.3605
     16 N          62.7839   86.3970   11.9004 N.2     1  UNL1       -0.0547
     17 C          62.0261   87.2384   10.9167 C.3     1  UNL1        0.2975
     18 C          59.4821   88.9330    7.6142 C.2     1  UNL1        0.2459
     19 O          58.2463   88.2070    7.1717 O.2     1  UNL1       -0.2701
     20 N          59.8698   90.2238    6.9559 N.am    1  UNL1       -0.3025
     21 H          60.6809   90.7003    7.2463 H       1  UNL1        0.1497
     22 C          59.0218   90.7887    5.8551 C.3     1  UNL1        0.0720
     23 C          57.6812   90.9545    5.2028 C.3     1  UNL1        0.0213
     24 C          58.8935   91.6012    4.6007 C.3     1  UNL1        0.0213
     25 N          62.0993   84.6726   14.5261 N.pl3   1  UNL1       -0.3329
     26 H          61.1835   84.8999   14.2451 H       1  UNL1        0.1466
     27 C          62.7174   85.3687   15.7023 C.3     1  UNL1        0.1211
     28 C          63.9637   86.1835   15.5215 C.3     1  UNL1        0.1522
     29 O          65.2691   85.5033   15.2329 O.3     1  UNL1       -0.3783
     30 H          65.1326   84.5437   15.1963 H       1  UNL1        0.2109
     31 C          63.9047   87.6784   15.6295 C.ar    1  UNL1        0.0067
     32 C          63.1793   88.3196   16.7752 C.ar    1  UNL1       -0.0018
     33 C          63.1202   89.8146   16.8831 C.ar    1  UNL1        0.0006
     34 C          63.7866   90.6684   15.8454 C.ar    1  UNL1        0.0114
     35 C          64.5121   90.0272   14.6997 C.ar    1  UNL1        0.0574
     36 CL         65.1785   90.8810   13.6620 Cl      1  UNL1       -0.0823
     37 C          64.5711   88.5322   14.5918 C.ar    1  UNL1        0.0095
@<TRIPOS>BOND
     1     8     9    1
     2     9    10    2
     3    10    11    1
     4    11    18    1
     5    18    19    2
     6    18    20   am
     7    20    22    1
     8    22    23    1
     9    23    24    1
    10    11    12    2
    11    12    13    1
    12    13    14    2
    13    14    15    1
    14    15     1    1
    15     1     2    1
    16     2    25    1
    17    25    27    1
    18    27    28    1
    19    28    29    1
    20    28    31    1
    21    31    32   ar
    22    32    33   ar
    23    33    34   ar
    24    34    35   ar
    25    35    36    1
    26    35    37   ar
    27     2     3    2
    28     3     4    1
    29     4     5    2
    30     5     6    1
    31     6     7    2
    32    15    16    2
    33    16    17    1
    34    17     9    1
    35    24    22    1
    36    17    13    1
    37     6     1    1
    38    37    31   ar
    39    20    21    1
    40    25    26    1
    41    29    30    1
@<TRIPOS>MOLECULE
*****
 37 41 0 0 0
SMALL
GASTEIGER

@<TRIPOS>ATOM
      1 C          63.0673   84.7165   13.0883 C.3     1  UNL1        0.2246
      2 C          63.7660   85.6321   14.0492 C.2     1  UNL1        0.0436
      3 C          64.3352   85.0869   15.3255 C.2     1  UNL1        0.0288
      4 C          64.2057   83.6261   15.6408 C.2     1  UNL1        0.0896
      5 N          63.5070   82.7105   14.6799 N.am    1  UNL1       -0.1770
      6 C          62.9378   83.2558   13.4036 C.2     1  UNL1        0.2627
      7 O          62.2390   82.3402   12.4427 O.2     1  UNL1       -0.2719
      8 C          62.7325   84.5786    7.1761 C.3     1  UNL1        0.0312
      9 C          61.9309   85.5756    7.9595 C.2     1  UNL1        0.0125
     10 C          61.0371   86.5461    7.2459 C.2     1  UNL1        0.0007
     11 C          60.2356   87.5430    8.0291 C.2     1  UNL1        0.0564
     12 C          60.3277   87.5695    9.5261 C.2     1  UNL1        0.0513
     13 C          61.2214   86.5989   10.2397 C.2     1  UNL1        0.2235
     14 N          61.5150   86.3886   11.6956 N.2     1  UNL1       -0.0378
     15 C          62.4981   85.2616   11.8120 C.2     1  UNL1        0.3605
     16 N          62.8121   84.7755   10.4281 N.2     1  UNL1       -0.0547
     17 C          62.0230   85.6020    9.4564 C.3     1  UNL1        0.2975
     18 C          59.3418   88.5136    7.3154 C.2     1  UNL1        0.2459
     19 O          57.8517   88.3771    7.4195 O.2     1  UNL1       -0.2701
     20 N          59.9382   89.6208    6.4978 N.am    1  UNL1       -0.3025
     21 H          60.9163   89.7104    6.4295 H       1  UNL1        0.1497
     22 C          59.0445   90.5913    5.7842 C.3     1  UNL1        0.0720
     23 C          57.6740   91.0135    5.3443 C.3     1  UNL1        0.0213
     24 C          58.8670   91.8502    4.9881 C.3     1  UNL1        0.0213
     25 N          63.8956   87.0928   13.7340 N.pl3   1  UNL1       -0.3329
     26 H          63.6960   87.4203   12.8272 H       1  UNL1        0.1466
     27 C          64.3293   88.0547   14.8002 C.3     1  UNL1        0.1211
     28 C          63.8215   89.4660   14.7886 C.3     1  UNL1        0.1522
     29 O          62.8895   89.9367   15.8656 O.3     1  UNL1       -0.3783
     30 H          62.7181   89.2101   16.4851 H       1  UNL1        0.2109
     31 C          64.2456   90.4068   13.7000 C.ar    1  UNL1        0.0067
     32 C          65.4266   91.3084   13.9058 C.ar    1  UNL1       -0.0018
     33 C          65.8507   92.2491   12.8171 C.ar    1  UNL1        0.0006
     34 C          65.0938   92.2883   11.5227 C.ar    1  UNL1        0.0114
     35 C          63.9129   91.3867   11.3169 C.ar    1  UNL1        0.0574
     36 CL         63.1560   91.4259   10.0225 Cl      1  UNL1       -0.0823
     37 C          63.4887   90.4460   12.4055 C.ar    1  UNL1        0.0095
@<TRIPOS>BOND
     1     8     9    1
     2     9    10    2
     3    10    11    1
     4    11    18    1
     5    18    19    2
     6    18    20   am
     7    20    22    1
     8    22    23    1
     9    23    24    1
    10    11    12    2
    11    12    13    1
    12    13    14    2
    13    14    15    1
    14    15     1    1
    15     1     2    1
    16     2    25    1
    17    25    27    1
    18    27    28    1
    19    28    29    1
    20    28    31    1
    21    31    32   ar
    22    32    33   ar
    23    33    34   ar
    24    34    35   ar
    25    35    36    1
    26    35    37   ar
    27     2     3    2
    28     3     4    1
    29     4     5    2
    30     5     6    1
    31     6     7    2
    32    15    16    2
    33    16    17    1
    34    17     9    1
    35    24    22    1
    36    17    13    1
    37     6     1    1
    38    37    31   ar
    39    20    21    1
    40    25    26    1
    41    29    30    1
@<TRIPOS>MOLECULE
*****
 37 41 0 0 0
SMALL
GASTEIGER

@<TRIPOS>ATOM
      1 C          63.1934   83.3285   13.4593 C.3     1  UNL1        0.2246
      2 C          62.7242   83.1518   12.0456 C.2     1  UNL1        0.0436
      3 C          62.5666   81.7737   11.4745 C.2     1  UNL1        0.0288
      4 C          62.8783   80.5724   12.3170 C.2     1  UNL1        0.0896
      5 N          63.3475   80.7492   13.7307 N.am    1  UNL1       -0.1770
      6 C          63.5050   82.1273   14.3018 C.2     1  UNL1        0.2627
      7 O          63.9743   82.3040   15.7155 O.2     1  UNL1       -0.2719
      8 C          62.5369   87.0839   17.9926 C.3     1  UNL1        0.0312
      9 C          63.1334   87.5521   16.6984 C.2     1  UNL1        0.0125
     10 C          63.5681   88.9796   16.5460 C.2     1  UNL1        0.0007
     11 C          64.1646   89.4479   15.2519 C.2     1  UNL1        0.0564
     12 C          64.3264   88.4887   14.1100 C.2     1  UNL1        0.0513
     13 C          63.8917   87.0612   14.2624 C.2     1  UNL1        0.2235
     14 N          63.9262   85.8953   13.3192 N.2     1  UNL1       -0.0378
     15 C          63.3510   84.7065   14.0305 C.2     1  UNL1        0.3605
     16 N          62.9610   85.1376   15.4133 N.2     1  UNL1       -0.0547
     17 C          63.2952   86.5929   15.5567 C.3     1  UNL1        0.2975
     18 C          64.5993   90.8755   15.0995 C.2     1  UNL1        0.2459
     19 O          63.9269   91.9535   15.8968 O.2     1  UNL1       -0.2701
     20 N          65.7064   91.2250   14.1497 N.am    1  UNL1       -0.3025
     21 H          66.1477   90.5175   13.6263 H       1  UNL1        0.1497
     22 C          66.1411   92.6525   13.9972 C.3     1  UNL1        0.0720
     23 C          66.8325   93.8655   14.5457 C.3     1  UNL1        0.0213
     24 C          66.2028   93.9120   13.1849 C.3     1  UNL1        0.0213
     25 N          62.4125   84.3530   11.2030 N.pl3   1  UNL1       -0.3329
     26 H          61.6532   84.9345   11.4366 H       1  UNL1        0.1466
     27 C          63.2577   84.6682   10.0046 C.3     1  UNL1        0.1211
     28 C          62.6536   85.3701    8.8246 C.3     1  UNL1        0.1522
     29 O          62.8334   84.8088    7.4452 O.3     1  UNL1       -0.3783
     30 H          63.3607   83.9960    7.4931 H       1  UNL1        0.2109
     31 C          61.8697   86.6334    9.0239 C.ar    1  UNL1        0.0067
     32 C          60.5068   86.7745    8.4137 C.ar    1  UNL1       -0.0018
     33 C          59.7229   88.0377    8.6130 C.ar    1  UNL1        0.0006
     34 C          60.3019   89.1599    9.4226 C.ar    1  UNL1        0.0114
     35 C          61.6649   89.0187   10.0329 C.ar    1  UNL1        0.0574
     36 CL         62.2439   90.1409   10.8425 Cl      1  UNL1       -0.0823
     37 C          62.4488   87.7555    9.8335 C.ar    1  UNL1        0.0095
@<TRIPOS>BOND
     1     8     9    1
     2     9    10    2
     3    10    11    1
     4    11    18    1
     5    18    19    2
     6    18    20   am
     7    20    22    1
     8    22    23    1
     9    23    24    1
    10    11    12    2
    11    12    13    1
    12    13    14    2
    13    14    15    1
    14    15     1    1
    15     1     2    1
    16     2    25    1
    17    25    27    1
    18    27    28    1
    19    28    29    1
    20    28    31    1
    21    31    32   ar
    22    32    33   ar
    23    33    34   ar
    24    34    35   ar
    25    35    36    1
    26    35    37   ar
    27     2     3    2
    28     3     4    1
    29     4     5    2
    30     5     6    1
    31     6     7    2
    32    15    16    2
    33    16    17    1
    34    17     9    1
    35    24    22    1
    36    17    13    1
    37     6     1    1
    38    37    31   ar
    39    20    21    1
    40    25    26    1
    41    29    30    1
@<TRIPOS>MOLECULE
*****
 37 41 0 0 0
SMALL
GASTEIGER

@<TRIPOS>ATOM
      1 C          64.6778   90.8775   14.7259 C.3     1  UNL1        0.2246
      2 C          65.6761   91.7755   14.0573 C.2     1  UNL1        0.0436
      3 C          66.1740   93.0012   14.7643 C.2     1  UNL1        0.0288
      4 C          65.6736   93.3290   16.1398 C.2     1  UNL1        0.0896
      5 N          64.6753   92.4310   16.8085 N.am    1  UNL1       -0.1770
      6 C          64.1774   91.2053   16.1015 C.2     1  UNL1        0.2627
      7 O          63.1791   90.3074   16.7701 O.2     1  UNL1       -0.2719
      8 C          61.7829   88.4273   10.1761 C.3     1  UNL1        0.0312
      9 C          62.3827   87.5658   11.2476 C.2     1  UNL1        0.0125
     10 C          62.2514   86.0735   11.1711 C.2     1  UNL1        0.0007
     11 C          62.8512   85.2120   12.2424 C.2     1  UNL1        0.0564
     12 C          63.5823   85.8426   13.3904 C.2     1  UNL1        0.0513
     13 C          63.7136   87.3349   13.4669 C.2     1  UNL1        0.2235
     14 N          64.3725   88.2343   14.4703 N.2     1  UNL1       -0.0378
     15 C          64.1799   89.6518   14.0190 C.2     1  UNL1        0.3605
     16 N          63.4020   89.6284   12.7367 N.2     1  UNL1       -0.0547
     17 C          63.1138   88.1965   12.3955 C.3     1  UNL1        0.2975
     18 C          62.7199   83.7196   12.1659 C.2     1  UNL1        0.2459
     19 O          62.9647   83.0108   10.8668 O.2     1  UNL1       -0.2701
     20 N          62.3438   82.9361   13.3885 N.am    1  UNL1       -0.3025
     21 H          62.1831   83.4014   14.2412 H       1  UNL1        0.1497
     22 C          62.2125   81.4439   13.3120 C.3     1  UNL1        0.0720
     23 C          61.5793   80.1695   13.7866 C.3     1  UNL1        0.0213
     24 C          62.6182   80.1335   12.7051 C.3     1  UNL1        0.0213
     25 N          66.1765   91.4478   12.6818 N.pl3   1  UNL1       -0.3329
     26 H          65.6592   90.8447   12.1005 H       1  UNL1        0.1466
     27 C          67.4651   92.0389   12.1918 C.3     1  UNL1        0.1211
     28 C          67.5514   92.6047   10.8053 C.3     1  UNL1        0.1522
     29 O          68.0634   91.7560    9.6795 O.3     1  UNL1       -0.3783
     30 H          68.2931   90.8759   10.0166 H       1  UNL1        0.2109
     31 C          67.1258   94.0192   10.5447 C.ar    1  UNL1        0.0067
     32 C          66.2254   94.7227   11.5164 C.ar    1  UNL1       -0.0018
     33 C          65.7998   96.1373   11.2558 C.ar    1  UNL1        0.0006
     34 C          66.2746   96.8484   10.0233 C.ar    1  UNL1        0.0114
     35 C          67.1750   96.1449    9.0516 C.ar    1  UNL1        0.0574
     36 CL         67.6498   96.8560    7.8192 Cl      1  UNL1       -0.0823
     37 C          67.6006   94.7303    9.3122 C.ar    1  UNL1        0.0095
@<TRIPOS>BOND
     1     8     9    1
     2     9    10    2
     3    10    11    1
     4    11    18    1
     5    18    19    2
     6    18    20   am
     7    20    22    1
     8    22    23    1
     9    23    24    1
    10    11    12    2
    11    12    13    1
    12    13    14    2
    13    14    15    1
    14    15     1    1
    15     1     2    1
    16     2    25    1
    17    25    27    1
    18    27    28    1
    19    28    29    1
    20    28    31    1
    21    31    32   ar
    22    32    33   ar
    23    33    34   ar
    24    34    35   ar
    25    35    36    1
    26    35    37   ar
    27     2     3    2
    28     3     4    1
    29     4     5    2
    30     5     6    1
    31     6     7    2
    32    15    16    2
    33    16    17    1
    34    17     9    1
    35    24    22    1
    36    17    13    1
    37     6     1    1
    38    37    31   ar
    39    20    21    1
    40    25    26    1
    41    29    30    1
@<TRIPOS>MOLECULE
*****
 37 41 0 0 0
SMALL
GASTEIGER

@<TRIPOS>ATOM
      1 C          65.0233   91.3848   13.4782 C.3     1  UNL1        0.2246
      2 C          64.6777   91.7568   12.0668 C.2     1  UNL1        0.0436
      3 C          65.0972   93.0883   11.5180 C.2     1  UNL1        0.0288
      4 C          65.8622   94.0478   12.3805 C.2     1  UNL1        0.0896
      5 N          66.2078   93.6759   13.7920 N.am    1  UNL1       -0.1770
      6 C          65.7884   92.3444   14.3408 C.2     1  UNL1        0.2627
      7 O          66.1340   91.9724   15.7522 O.2     1  UNL1       -0.2719
      8 C          62.9164   88.1454   17.9673 C.3     1  UNL1        0.0312
      9 C          63.2559   87.4984   16.6572 C.2     1  UNL1        0.0125
     10 C          63.0623   86.0218   16.4775 C.2     1  UNL1        0.0007
     11 C          63.4017   85.3749   15.1676 C.2     1  UNL1        0.0564
     12 C          63.9347   86.2045   14.0371 C.2     1  UNL1        0.0513
     13 C          64.1282   87.6810   14.2168 C.2     1  UNL1        0.2235
     14 N          64.6320   88.7473   13.2899 N.2     1  UNL1       -0.0378
     15 C          64.6039   90.0534   14.0271 C.2     1  UNL1        0.3605
     16 N          64.0828   89.7942   15.4096 N.2     1  UNL1       -0.0547
     17 C          63.7888   88.3280   15.5268 C.3     1  UNL1        0.2975
     18 C          63.2082   83.8982   14.9879 C.2     1  UNL1        0.2459
     19 O          64.2151   82.9365   15.5457 O.2     1  UNL1       -0.2701
     20 N          62.0077   83.3834   14.2503 N.am    1  UNL1       -0.3025
     21 H          61.3469   84.0147   13.8842 H       1  UNL1        0.1497
     22 C          61.8142   81.9069   14.0707 C.3     1  UNL1        0.0720
     23 C          62.3689   80.5565   13.7259 C.3     1  UNL1        0.0213
     24 C          60.9244   80.6998   14.1042 C.3     1  UNL1        0.0213
     25 N          63.9127   90.7974   11.2042 N.pl3   1  UNL1       -0.3329
     26 H          64.3934   90.1215   10.6736 H       1  UNL1        0.1466
     27 C          62.4153   90.8675   11.1498 C.3     1  UNL1        0.1211
     28 C          61.5919   89.7211   11.6572 C.3     1  UNL1        0.1522
     29 O          61.0778   89.7327   13.0663 O.3     1  UNL1       -0.3783
     30 H          61.3658   90.5464   13.5089 H       1  UNL1        0.2109
     31 C          61.2825   88.5630   10.7555 C.ar    1  UNL1        0.0067
     32 C          61.8936   87.2196   11.0234 C.ar    1  UNL1       -0.0018
     33 C          61.5842   86.0615   10.1217 C.ar    1  UNL1        0.0006
     34 C          60.6637   86.2468    8.9520 C.ar    1  UNL1        0.0114
     35 C          60.0525   87.5902    8.6841 C.ar    1  UNL1        0.0574
     36 CL         59.1320   87.7754    7.5143 Cl      1  UNL1       -0.0823
     37 C          60.3619   88.7482    9.5858 C.ar    1  UNL1        0.0095
@<TRIPOS>BOND
     1     8     9    1
     2     9    10    2
     3    10    11    1
     4    11    18    1
     5    18    19    2
     6    18    20   am
     7    20    22    1
     8    22    23    1
     9    23    24    1
    10    11    12    2
    11    12    13    1
    12    13    14    2
    13    14    15    1
    14    15     1    1
    15     1     2    1
    16     2    25    1
    17    25    27    1
    18    27    28    1
    19    28    29    1
    20    28    31    1
    21    31    32   ar
    22    32    33   ar
    23    33    34   ar
    24    34    35   ar
    25    35    36    1
    26    35    37   ar
    27     2     3    2
    28     3     4    1
    29     4     5    2
    30     5     6    1
    31     6     7    2
    32    15    16    2
    33    16    17    1
    34    17     9    1
    35    24    22    1
    36    17    13    1
    37     6     1    1
    38    37    31   ar
    39    20    21    1
    40    25    26    1
    41    29    30    1
@<TRIPOS>MOLECULE
*****
 37 41 0 0 0
SMALL
GASTEIGER

@<TRIPOS>ATOM
      1 C          63.9998   90.1776   14.8556 C.3     1  UNL1        0.2246
      2 C          64.9945   91.2397   14.4919 C.2     1  UNL1        0.0436
      3 C          65.3429   92.3115   15.4819 C.2     1  UNL1        0.0288
      4 C          64.6966   92.3211   16.8355 C.2     1  UNL1        0.0896
      5 N          63.7018   91.2590   17.1991 N.am    1  UNL1       -0.1770
      6 C          63.3534   90.1872   16.2092 C.2     1  UNL1        0.2627
      7 O          62.3587   89.1251   16.5728 O.2     1  UNL1       -0.2719
      8 C          63.6990   84.4335   13.4416 C.3     1  UNL1        0.0312
      9 C          63.2562   85.4809   12.4634 C.2     1  UNL1        0.0125
     10 C          62.7331   85.0764   11.1171 C.2     1  UNL1        0.0007
     11 C          62.2903   86.1238   10.1389 C.2     1  UNL1        0.0564
     12 C          62.3706   87.5757   10.5070 C.2     1  UNL1        0.0513
     13 C          62.8937   87.9802   11.8534 C.2     1  UNL1        0.2235
     14 N          63.0883   89.3232   12.4925 N.2     1  UNL1       -0.0378
     15 C          63.6513   89.1058   13.8657 C.2     1  UNL1        0.3605
     16 N          63.8048   87.6285   14.0753 N.2     1  UNL1       -0.0547
     17 C          63.3366   86.9328   12.8316 C.3     1  UNL1        0.2975
     18 C          61.7671   85.7192    8.7925 C.2     1  UNL1        0.2459
     19 O          60.3531   86.0418    8.4094 O.2     1  UNL1       -0.2701
     20 N          62.6579   84.9922    7.8292 N.am    1  UNL1       -0.3025
     21 H          63.5859   84.7805    8.0806 H       1  UNL1        0.1497
     22 C          62.1347   84.5877    6.4828 C.3     1  UNL1        0.0720
     23 C          61.0167   84.0757    5.6239 C.3     1  UNL1        0.0213
     24 C          62.3466   84.3991    5.0099 C.3     1  UNL1        0.0213
     25 N          65.6409   91.2302   13.1384 N.pl3   1  UNL1       -0.3329
     26 H          66.3628   90.5902   12.9422 H       1  UNL1        0.1466
     27 C          65.1875   92.1957   12.0839 C.3     1  UNL1        0.1211
     28 C          65.9044   93.5009   11.9039 C.3     1  UNL1        0.1522
     29 O          65.8655   94.5341   12.9906 O.3     1  UNL1       -0.3783
     30 H          65.3386   94.2017   13.7341 H       1  UNL1        0.2109
     31 C          66.6603   93.7729   10.6371 C.ar    1  UNL1        0.0067
     32 C          66.5311   95.1039    9.9576 C.ar    1  UNL1       -0.0018
     33 C          67.2870   95.3758    8.6909 C.ar    1  UNL1        0.0006
     34 C          68.1722   94.3168    8.1036 C.ar    1  UNL1        0.0114
     35 C          68.3014   92.9858    8.7831 C.ar    1  UNL1        0.0574
     36 CL         69.1866   91.9268    8.1958 Cl      1  UNL1       -0.0823
     37 C          67.5455   92.7139   10.0498 C.ar    1  UNL1        0.0095
@<TRIPOS>BOND
     1     8     9    1
     2     9    10    2
     3    10    11    1
     4    11    18    1
     5    18    19    2
     6    18    20   am
     7    20    22    1
     8    22    23    1
     9    23    24    1
    10    11    12    2
    11    12    13    1
    12    13    14    2
    13    14    15    1
    14    15     1    1
    15     1     2    1
    16     2    25    1
    17    25    27    1
    18    27    28    1
    19    28    29    1
    20    28    31    1
    21    31    32   ar
    22    32    33   ar
    23    33    34   ar
    24    34    35   ar
    25    35    36    1
    26    35    37   ar
    27     2     3    2
    28     3     4    1
    29     4     5    2
    30     5     6    1
    31     6     7    2
    32    15    16    2
    33    16    17    1
    34    17     9    1
    35    24    22    1
    36    17    13    1
    37     6     1    1
    38    37    31   ar
    39    20    21    1
    40    25    26    1
    41    29    30    1
@<TRIPOS>MOLECULE
*****
 37 41 0 0 0
SMALL
GASTEIGER

@<TRIPOS>ATOM
      1 C          63.9050   90.8402   14.0623 C.3     1  UNL1        0.2246
      2 C          63.7620   90.5930   15.5349 C.2     1  UNL1        0.0436
      3 C          64.6006   91.3652   16.5098 C.2     1  UNL1        0.0288
      4 C          65.5822   92.3845   16.0123 C.2     1  UNL1        0.0896
      5 N          65.7252   92.6316   14.5398 N.am    1  UNL1       -0.1770
      6 C          64.8866   91.8595   13.5648 C.2     1  UNL1        0.2627
      7 O          65.0297   92.1066   12.0922 O.2     1  UNL1       -0.2719
      8 C          58.5804   88.9626   12.2713 C.3     1  UNL1        0.0312
      9 C          59.8152   88.5870   11.5069 C.2     1  UNL1        0.0125
     10 C          59.7063   87.7304   10.2803 C.2     1  UNL1        0.0007
     11 C          60.9410   87.3548    9.5159 C.2     1  UNL1        0.0564
     12 C          62.2846   87.8356    9.9781 C.2     1  UNL1        0.0513
     13 C          62.3935   88.6921   11.2047 C.2     1  UNL1        0.2235
     14 N          63.5725   89.3103   11.8958 N.2     1  UNL1       -0.0378
     15 C          63.0665   90.0681   13.0873 C.2     1  UNL1        0.3605
     16 N          61.5747   89.9182   13.1326 N.2     1  UNL1       -0.0547
     17 C          61.1587   89.0678   11.9691 C.3     1  UNL1        0.2975
     18 C          60.8322   86.4982    8.2893 C.2     1  UNL1        0.2459
     19 O          59.5453   86.4497    7.5202 O.2     1  UNL1       -0.2701
     20 N          62.0102   85.6902    7.8318 N.am    1  UNL1       -0.3025
     21 H          62.8549   85.7220    8.3366 H       1  UNL1        0.1497
     22 C          61.9014   84.8337    6.6052 C.3     1  UNL1        0.0720
     23 C          62.4173   84.4225    5.2581 C.3     1  UNL1        0.0213
     24 C          61.1972   83.7615    5.8278 C.3     1  UNL1        0.0213
     25 N          62.7804   89.5738   16.0325 N.pl3   1  UNL1       -0.3329
     26 H          61.8303   89.6433   15.7843 H       1  UNL1        0.1466
     27 C          63.2465   88.4486   16.9081 C.3     1  UNL1        0.1211
     28 C          62.6708   87.0746   16.7337 C.3     1  UNL1        0.1522
     29 O          61.3759   86.7139   17.3994 O.3     1  UNL1       -0.3783
     30 H          61.0463   87.4765   17.9000 H       1  UNL1        0.2109
     31 C          63.3899   86.0612   15.8935 C.ar    1  UNL1        0.0067
     32 C          64.6942   86.4157   15.2432 C.ar    1  UNL1       -0.0018
     33 C          65.4134   85.4024   14.4030 C.ar    1  UNL1        0.0006
     34 C          64.8282   84.0343   14.2132 C.ar    1  UNL1        0.0114
     35 C          63.5238   83.6798   14.8635 C.ar    1  UNL1        0.0574
     36 CL         62.9386   82.3117   14.6736 Cl      1  UNL1       -0.0823
     37 C          62.8047   84.6932   15.7037 C.ar    1  UNL1        0.0095
@<TRIPOS>BOND
     1     8     9    1
     2     9    10    2
     3    10    11    1
     4    11    18    1
     5    18    19    2
     6    18    20   am
     7    20    22    1
     8    22    23    1
     9    23    24    1
    10    11    12    2
    11    12    13    1
    12    13    14    2
    13    14    15    1
    14    15     1    1
    15     1     2    1
    16     2    25    1
    17    25    27    1
    18    27    28    1
    19    28    29    1
    20    28    31    1
    21    31    32   ar
    22    32    33   ar
    23    33    34   ar
    24    34    35   ar
    25    35    36    1
    26    35    37   ar
    27     2     3    2
    28     3     4    1
    29     4     5    2
    30     5     6    1
    31     6     7    2
    32    15    16    2
    33    16    17    1
    34    17     9    1
    35    24    22    1
    36    17    13    1
    37     6     1    1
    38    37    31   ar
    39    20    21    1
    40    25    26    1
    41    29    30    1
