@<TRIPOS>MOLECULE
*****
 31 33 0 0 0
SMALL
GASTEIGER

@<TRIPOS>ATOM
      1 C          63.0823   89.7609   12.2879 C.2     1  UNL1        0.2657
      2 O          62.4948   89.2898   13.5852 O.2     1  UNL1       -0.2684
      3 N          62.7410   89.0541   11.0095 N.am    1  UNL1       -0.2971
      4 H          63.1265   89.3632   10.1581 H       1  UNL1        0.1500
      5 C          65.4955   92.7194   12.9868 C.ar    1  UNL1        0.2278
      6 C          64.6466   91.5796   13.4667 C.ar    1  UNL1        0.0832
      7 C          64.0109   90.9387   12.2688 C.ar    1  UNL1        0.1591
      8 N          64.4669   91.6823   11.0485 N.ar    1  UNL1       -0.1578
      9 N          65.3844   92.7829   11.4922 N.ar    1  UNL1       -0.1958
     10 C          66.0704   93.7730   10.5984 C.ar    1  UNL1        0.1132
     11 C          65.5954   95.1950   10.5504 C.ar    1  UNL1        0.0215
     12 C          66.2813   96.1852    9.6566 C.ar    1  UNL1        0.0017
     13 C          67.4423   95.7534    8.8107 C.ar    1  UNL1        0.0024
     14 C          67.9173   94.3313    8.8586 C.ar    1  UNL1        0.0312
     15 C          67.2314   93.3412    9.7525 C.ar    1  UNL1        0.1578
     16 F          67.7064   91.9192    9.8004 F       1  UNL1       -0.2026
     17 O          66.3121   93.6350   13.8499 O.3     1  UNL1       -0.4602
     18 C          67.2955   92.7398   16.0818 C.3     1  UNL1        0.0512
     19 C          67.4696   93.0919   14.6343 C.3     1  UNL1        0.2072
     20 C          61.8124   87.8763   11.0286 C.3     1  UNL1        0.0996
     21 C          62.3653   86.4871   11.1493 C.ar    1  UNL1       -0.0081
     22 C          62.7553   85.9493   12.4941 C.ar    1  UNL1       -0.0030
     23 C          63.3081   84.5602   12.6148 C.ar    1  UNL1       -0.0003
     24 C          63.4710   83.7088   11.3906 C.ar    1  UNL1       -0.0003
     25 C          63.0810   84.2466   10.0458 C.ar    1  UNL1       -0.0045
     26 C          62.5281   85.6357    9.9251 C.ar    1  UNL1       -0.0243
     27 C          62.1381   86.1736    8.5802 C.3     1  UNL1        0.0308
     28 C          60.3308   88.0876   10.9269 C.3     1  UNL1        0.0658
     29 C          59.6750   89.1887   11.7065 C.2     1  UNL1        0.0523
     30 O          58.8898   88.8670   12.9434 O.co2   1  UNL1       -0.5491
     31 O          59.8046   90.6114   11.2492 O.co2   1  UNL1       -0.5491
@<TRIPOS>UNITY_ATOM_ATTR
30 1
charge -1
@<TRIPOS>BOND
     1    18    19    1
     2    19    17    1
     3    17     5    1
     4     5     6   ar
     5     6     7   ar
     6     7     1    1
     7     1     2    2
     8     1     3   am
     9     3    20    1
    10    20    28    1
    11    28    29    1
    12    29    30   ar
    13    29    31   ar
    14    20    21    1
    15    21    22   ar
    16    22    23   ar
    17    23    24   ar
    18    24    25   ar
    19    25    26   ar
    20    26    27    1
    21     7     8   ar
    22     8     9   ar
    23     9    10    1
    24    10    11   ar
    25    11    12   ar
    26    12    13   ar
    27    13    14   ar
    28    14    15   ar
    29    15    16    1
    30     9     5   ar
    31    15    10   ar
    32    26    21   ar
    33     3     4    1
@<TRIPOS>MOLECULE
*****
 31 33 0 0 0
SMALL
GASTEIGER

@<TRIPOS>ATOM
      1 C          62.6553   89.3774   11.8617 C.2     1  UNL1        0.2657
      2 O          61.2572   89.5039   12.3903 O.2     1  UNL1       -0.2684
      3 N          63.0932   88.1066   11.1958 N.am    1  UNL1       -0.2971
      4 H          64.0108   88.0235   10.8489 H       1  UNL1        0.1500
      5 C          65.0860   92.1988   12.9555 C.ar    1  UNL1        0.2278
      6 C          64.1685   91.0590   13.2855 C.ar    1  UNL1        0.0832
      7 C          63.6155   90.5216   11.9990 C.ar    1  UNL1        0.1591
      8 N          64.1912   91.3293   10.8737 N.ar    1  UNL1       -0.1578
      9 N          65.1000   92.3659   11.4648 N.ar    1  UNL1       -0.1958
     10 C          65.8850   93.3898   10.6997 C.ar    1  UNL1        0.1132
     11 C          65.4231   94.8165   10.6646 C.ar    1  UNL1        0.0215
     12 C          66.2081   95.8404    9.8995 C.ar    1  UNL1        0.0017
     13 C          67.4551   95.4375    9.1696 C.ar    1  UNL1        0.0024
     14 C          67.9170   94.0108    9.2047 C.ar    1  UNL1        0.0312
     15 C          67.1320   92.9870    9.9698 C.ar    1  UNL1        0.1578
     16 F          67.5939   91.5603   10.0049 F       1  UNL1       -0.2026
     17 O          65.8546   93.0263   13.9427 O.3     1  UNL1       -0.4602
     18 C          67.3755   92.8917   16.0447 C.3     1  UNL1        0.0512
     19 C          66.1251   92.4933   15.3185 C.3     1  UNL1        0.2072
     20 C          62.1330   86.9624   11.0586 C.3     1  UNL1        0.0996
     21 C          61.2557   86.8608    9.8461 C.ar    1  UNL1       -0.0081
     22 C          59.9535   87.6037    9.7983 C.ar    1  UNL1       -0.0030
     23 C          59.0762   87.5021    8.5859 C.ar    1  UNL1       -0.0003
     24 C          59.5011   86.6576    7.4213 C.ar    1  UNL1       -0.0003
     25 C          60.8033   85.9147    7.4691 C.ar    1  UNL1       -0.0045
     26 C          61.6806   86.0163    8.6815 C.ar    1  UNL1       -0.0243
     27 C          62.9828   85.2734    8.7294 C.3     1  UNL1        0.0308
     28 C          62.0502   85.9197   12.1338 C.3     1  UNL1        0.0658
     29 C          63.2667   85.5775   12.9419 C.2     1  UNL1        0.0523
     30 O          63.9096   84.2302   12.7957 O.co2   1  UNL1       -0.5491
     31 O          63.8402   86.5826   13.8963 O.co2   1  UNL1       -0.5491
@<TRIPOS>UNITY_ATOM_ATTR
30 1
charge -1
@<TRIPOS>BOND
     1    18    19    1
     2    19    17    1
     3    17     5    1
     4     5     6   ar
     5     6     7   ar
     6     7     1    1
     7     1     2    2
     8     1     3   am
     9     3    20    1
    10    20    28    1
    11    28    29    1
    12    29    30   ar
    13    29    31   ar
    14    20    21    1
    15    21    22   ar
    16    22    23   ar
    17    23    24   ar
    18    24    25   ar
    19    25    26   ar
    20    26    27    1
    21     7     8   ar
    22     8     9   ar
    23     9    10    1
    24    10    11   ar
    25    11    12   ar
    26    12    13   ar
    27    13    14   ar
    28    14    15   ar
    29    15    16    1
    30     9     5   ar
    31    15    10   ar
    32    26    21   ar
    33     3     4    1
@<TRIPOS>MOLECULE
*****
 31 33 0 0 0
SMALL
GASTEIGER

@<TRIPOS>ATOM
      1 C          64.2148   91.2568   12.2214 C.2     1  UNL1        0.2657
      2 O          63.9766   91.8562   13.5756 O.2     1  UNL1       -0.2684
      3 N          65.2270   91.8678   11.2982 N.am    1  UNL1       -0.2971
      4 H          65.3833   91.4743   10.4094 H       1  UNL1        0.1500
      5 C          62.4598   87.8268   11.7522 C.ar    1  UNL1        0.2278
      6 C          63.3258   88.7573   12.5486 C.ar    1  UNL1        0.0832
      7 C          63.4408   90.0464   11.7903 C.ar    1  UNL1        0.1591
      8 N          62.6458   89.9126   10.5253 N.ar    1  UNL1       -0.1578
      9 N          62.0395   88.5408   10.5018 N.ar    1  UNL1       -0.1958
     10 C          61.1664   87.9813    9.4180 C.ar    1  UNL1        0.1132
     11 C          61.3993   86.5888    8.9112 C.ar    1  UNL1        0.0215
     12 C          60.5262   86.0293    7.8275 C.ar    1  UNL1        0.0017
     13 C          59.4200   86.8622    7.2506 C.ar    1  UNL1        0.0024
     14 C          59.1871   88.2546    7.7575 C.ar    1  UNL1        0.0312
     15 C          60.0602   88.8141    8.8412 C.ar    1  UNL1        0.1578
     16 F          59.8273   90.2066    9.3481 F       1  UNL1       -0.2026
     17 O          62.0806   86.4278   12.1385 O.3     1  UNL1       -0.4602
     18 C          62.8689   84.0711   11.3807 C.3     1  UNL1        0.0512
     19 C          63.1160   85.3425   12.1370 C.3     1  UNL1        0.2072
     20 C          66.0010   93.0781   11.7293 C.3     1  UNL1        0.0996
     21 C          66.3030   94.1662   10.7418 C.ar    1  UNL1       -0.0081
     22 C          65.5823   95.4788   10.8285 C.ar    1  UNL1       -0.0030
     23 C          65.8843   96.5668    9.8411 C.ar    1  UNL1       -0.0003
     24 C          66.9070   96.3421    8.7670 C.ar    1  UNL1       -0.0003
     25 C          67.6276   95.0295    8.6803 C.ar    1  UNL1       -0.0045
     26 C          67.3256   93.9415    9.6677 C.ar    1  UNL1       -0.0243
     27 C          68.0463   92.6288    9.5811 C.3     1  UNL1        0.0308
     28 C          66.4730   93.2005   13.1478 C.3     1  UNL1        0.0658
     29 C          67.4707   92.2222   13.6933 C.2     1  UNL1        0.0523
     30 O          67.2753   91.6347   15.0595 O.co2   1  UNL1       -0.5491
     31 O          68.6638   91.8313   12.8725 O.co2   1  UNL1       -0.5491
@<TRIPOS>UNITY_ATOM_ATTR
30 1
charge -1
@<TRIPOS>BOND
     1    18    19    1
     2    19    17    1
     3    17     5    1
     4     5     6   ar
     5     6     7   ar
     6     7     1    1
     7     1     2    2
     8     1     3   am
     9     3    20    1
    10    20    28    1
    11    28    29    1
    12    29    30   ar
    13    29    31   ar
    14    20    21    1
    15    21    22   ar
    16    22    23   ar
    17    23    24   ar
    18    24    25   ar
    19    25    26   ar
    20    26    27    1
    21     7     8   ar
    22     8     9   ar
    23     9    10    1
    24    10    11   ar
    25    11    12   ar
    26    12    13   ar
    27    13    14   ar
    28    14    15   ar
    29    15    16    1
    30     9     5   ar
    31    15    10   ar
    32    26    21   ar
    33     3     4    1
@<TRIPOS>MOLECULE
*****
 31 33 0 0 0
SMALL
GASTEIGER

@<TRIPOS>ATOM
      1 C          62.7083   89.7474   11.4440 C.2     1  UNL1        0.2657
      2 O          61.7270   89.3856   12.5193 O.2     1  UNL1       -0.2684
      3 N          62.7349   88.9709   10.1609 N.am    1  UNL1       -0.2971
      4 H          63.3789   89.2083    9.4551 H       1  UNL1        0.1500
      5 C          65.1161   92.5153   12.7113 C.ar    1  UNL1        0.2278
      6 C          64.1986   91.3574   12.9710 C.ar    1  UNL1        0.0832
      7 C          63.6628   90.8856   11.6517 C.ar    1  UNL1        0.1591
      8 N          64.2492   91.7520   10.5768 N.ar    1  UNL1       -0.1578
      9 N          65.1474   92.7592   11.2316 N.ar    1  UNL1       -0.1958
     10 C          65.9381   93.8233   10.5299 C.ar    1  UNL1        0.1132
     11 C          65.4832   95.2518   10.5806 C.ar    1  UNL1        0.0215
     12 C          66.2739   96.3160    9.8789 C.ar    1  UNL1        0.0017
     13 C          67.5194   95.9517    9.1266 C.ar    1  UNL1        0.0024
     14 C          67.9742   94.5232    9.0760 C.ar    1  UNL1        0.0312
     15 C          67.1836   93.4590    9.7776 C.ar    1  UNL1        0.1578
     16 F          67.6384   92.0305    9.7269 F       1  UNL1       -0.2026
     17 O          65.8700   93.2928   13.7492 O.3     1  UNL1       -0.4602
     18 C          67.9959   91.8344   13.4275 C.3     1  UNL1        0.0512
     19 C          67.1853   92.7832   14.2595 C.3     1  UNL1        0.2072
     20 C          61.7804   87.8326    9.9531 C.3     1  UNL1        0.0996
     21 C          62.3016   86.4335    9.8081 C.ar    1  UNL1       -0.0081
     22 C          62.6157   85.8875    8.4468 C.ar    1  UNL1       -0.0030
     23 C          63.1369   84.4885    8.3019 C.ar    1  UNL1       -0.0003
     24 C          63.3440   83.6355    9.5183 C.ar    1  UNL1       -0.0003
     25 C          63.0299   84.1815   10.8796 C.ar    1  UNL1       -0.0045
     26 C          62.5087   85.5805   11.0245 C.ar    1  UNL1       -0.0243
     27 C          62.1945   86.1266   12.3858 C.3     1  UNL1        0.0308
     28 C          60.3045   88.0934    9.8903 C.3     1  UNL1        0.0658
     29 C          59.5939   88.0678    8.5695 C.2     1  UNL1        0.0523
     30 O          59.7452   89.2142    7.6141 O.co2   1  UNL1       -0.5491
     31 O          58.7320   86.8958    8.2042 O.co2   1  UNL1       -0.5491
@<TRIPOS>UNITY_ATOM_ATTR
30 1
charge -1
@<TRIPOS>BOND
     1    18    19    1
     2    19    17    1
     3    17     5    1
     4     5     6   ar
     5     6     7   ar
     6     7     1    1
     7     1     2    2
     8     1     3   am
     9     3    20    1
    10    20    28    1
    11    28    29    1
    12    29    30   ar
    13    29    31   ar
    14    20    21    1
    15    21    22   ar
    16    22    23   ar
    17    23    24   ar
    18    24    25   ar
    19    25    26   ar
    20    26    27    1
    21     7     8   ar
    22     8     9   ar
    23     9    10    1
    24    10    11   ar
    25    11    12   ar
    26    12    13   ar
    27    13    14   ar
    28    14    15   ar
    29    15    16    1
    30     9     5   ar
    31    15    10   ar
    32    26    21   ar
    33     3     4    1
@<TRIPOS>MOLECULE
*****
 31 33 0 0 0
SMALL
GASTEIGER

@<TRIPOS>ATOM
      1 C          62.5571   88.9288   11.9523 C.2     1  UNL1        0.2657
      2 O          61.1133   89.1017   12.3205 O.2     1  UNL1       -0.2684
      3 N          63.0232   87.6481   11.3257 N.am    1  UNL1       -0.2971
      4 H          63.9708   87.5346   11.0840 H       1  UNL1        0.1500
      5 C          64.8150   92.0857   11.9815 C.ar    1  UNL1        0.2278
      6 C          63.7463   91.2451   11.3480 C.ar    1  UNL1        0.0832
      7 C          63.5349   90.0365   12.2109 C.ar    1  UNL1        0.1591
      8 N          64.4729   90.1301   13.3776 N.ar    1  UNL1       -0.1578
      9 N          65.2641   91.3966   13.2359 N.ar    1  UNL1       -0.1958
     10 C          66.3191   91.8878   14.1824 C.ar    1  UNL1        0.1132
     11 C          67.7405   92.0149   13.7205 C.ar    1  UNL1        0.0215
     12 C          68.7955   92.5061   14.6670 C.ar    1  UNL1        0.0017
     13 C          68.4290   92.8701   16.0752 C.ar    1  UNL1        0.0024
     14 C          67.0075   92.7429   16.5370 C.ar    1  UNL1        0.0312
     15 C          65.9525   92.2518   15.5906 C.ar    1  UNL1        0.1578
     16 F          64.5311   92.1246   16.0524 F       1  UNL1       -0.2026
     17 O          65.3420   93.3870   11.4533 O.3     1  UNL1       -0.4602
     18 C          67.4634   92.9959   10.0053 C.3     1  UNL1        0.0512
     19 C          66.0329   93.4316   10.1227 C.3     1  UNL1        0.2072
     20 C          62.0454   86.5403   11.0671 C.3     1  UNL1        0.0996
     21 C          61.2095   86.5532    9.8216 C.ar    1  UNL1       -0.0081
     22 C          59.8855   87.2580    9.8142 C.ar    1  UNL1       -0.0030
     23 C          59.0497   87.2709    8.5688 C.ar    1  UNL1       -0.0003
     24 C          59.5379   86.5789    7.3307 C.ar    1  UNL1       -0.0003
     25 C          60.8619   85.8741    7.3381 C.ar    1  UNL1       -0.0045
     26 C          61.6978   85.8612    8.5836 C.ar    1  UNL1       -0.0243
     27 C          63.0219   85.1563    8.5910 C.3     1  UNL1        0.0308
     28 C          61.9035   85.4197   12.0540 C.3     1  UNL1        0.0658
     29 C          63.0719   85.0162   12.9038 C.2     1  UNL1        0.0523
     30 O          63.6240   83.6248   12.8080 O.co2   1  UNL1       -0.5491
     31 O          63.6882   86.0041   13.8494 O.co2   1  UNL1       -0.5491
@<TRIPOS>UNITY_ATOM_ATTR
30 1
charge -1
@<TRIPOS>BOND
     1    18    19    1
     2    19    17    1
     3    17     5    1
     4     5     6   ar
     5     6     7   ar
     6     7     1    1
     7     1     2    2
     8     1     3   am
     9     3    20    1
    10    20    28    1
    11    28    29    1
    12    29    30   ar
    13    29    31   ar
    14    20    21    1
    15    21    22   ar
    16    22    23   ar
    17    23    24   ar
    18    24    25   ar
    19    25    26   ar
    20    26    27    1
    21     7     8   ar
    22     8     9   ar
    23     9    10    1
    24    10    11   ar
    25    11    12   ar
    26    12    13   ar
    27    13    14   ar
    28    14    15   ar
    29    15    16    1
    30     9     5   ar
    31    15    10   ar
    32    26    21   ar
    33     3     4    1
@<TRIPOS>MOLECULE
*****
 31 33 0 0 0
SMALL
GASTEIGER

@<TRIPOS>ATOM
      1 C          62.6572   89.2429   12.0298 C.2     1  UNL1        0.2657
      2 O          61.2901   89.3627   12.6355 O.2     1  UNL1       -0.2684
      3 N          63.0114   88.0374   11.2104 N.am    1  UNL1       -0.2971
      4 H          63.9086   87.9588   10.8128 H       1  UNL1        0.1500
      5 C          64.9894   92.3444   11.9508 C.ar    1  UNL1        0.2278
      6 C          63.8786   91.5252   11.3635 C.ar    1  UNL1        0.0832
      7 C          63.6699   90.3285   12.2435 C.ar    1  UNL1        0.1591
      8 N          64.6518   90.4081   13.3747 N.ar    1  UNL1       -0.1578
      9 N          65.4673   91.6540   13.1938 N.ar    1  UNL1       -0.1958
     10 C          66.5675   92.1265   14.0973 C.ar    1  UNL1        0.1132
     11 C          66.2397   92.6792   15.4527 C.ar    1  UNL1        0.0215
     12 C          67.3399   93.1517   16.3561 C.ar    1  UNL1        0.0017
     13 C          68.7679   93.0715   15.9042 C.ar    1  UNL1        0.0024
     14 C          69.0958   92.5188   14.5488 C.ar    1  UNL1        0.0312
     15 C          67.9956   92.0462   13.6454 C.ar    1  UNL1        0.1578
     16 F          68.3234   91.4935   12.2900 F       1  UNL1       -0.2026
     17 O          65.5279   93.6285   11.3931 O.3     1  UNL1       -0.4602
     18 C          66.8734   94.7167    9.4551 C.3     1  UNL1        0.0512
     19 C          66.6910   93.6057   10.4461 C.3     1  UNL1        0.2072
     20 C          61.9987   86.9518   10.9967 C.3     1  UNL1        0.0996
     21 C          62.4113   85.5125   11.0886 C.ar    1  UNL1       -0.0081
     22 C          62.3378   84.7938   12.4031 C.ar    1  UNL1       -0.0030
     23 C          62.7503   83.3546   12.4950 C.ar    1  UNL1       -0.0003
     24 C          63.2364   82.6342   11.2724 C.ar    1  UNL1       -0.0003
     25 C          63.3098   83.3529    9.9579 C.ar    1  UNL1       -0.0045
     26 C          62.8973   84.7921    9.8660 C.ar    1  UNL1       -0.0243
     27 C          62.9707   85.5110    8.5515 C.3     1  UNL1        0.0308
     28 C          60.5733   87.3053   10.6911 C.3     1  UNL1        0.0658
     29 C          60.2321   88.0016    9.4069 C.2     1  UNL1        0.0523
     30 O          59.2690   87.3713    8.4451 O.co2   1  UNL1       -0.5491
     31 O          60.8540   89.3280    9.0847 O.co2   1  UNL1       -0.5491
@<TRIPOS>UNITY_ATOM_ATTR
30 1
charge -1
@<TRIPOS>BOND
     1    18    19    1
     2    19    17    1
     3    17     5    1
     4     5     6   ar
     5     6     7   ar
     6     7     1    1
     7     1     2    2
     8     1     3   am
     9     3    20    1
    10    20    28    1
    11    28    29    1
    12    29    30   ar
    13    29    31   ar
    14    20    21    1
    15    21    22   ar
    16    22    23   ar
    17    23    24   ar
    18    24    25   ar
    19    25    26   ar
    20    26    27    1
    21     7     8   ar
    22     8     9   ar
    23     9    10    1
    24    10    11   ar
    25    11    12   ar
    26    12    13   ar
    27    13    14   ar
    28    14    15   ar
    29    15    16    1
    30     9     5   ar
    31    15    10   ar
    32    26    21   ar
    33     3     4    1
@<TRIPOS>MOLECULE
*****
 31 33 0 0 0
SMALL
GASTEIGER

@<TRIPOS>ATOM
      1 C          62.5406   89.4332   11.9415 C.2     1  UNL1        0.2657
      2 O          61.2797   89.5024   12.7510 O.2     1  UNL1       -0.2684
      3 N          62.7115   88.3576   10.9099 N.am    1  UNL1       -0.2971
      4 H          63.5391   88.3121   10.3787 H       1  UNL1        0.1500
      5 C          65.1332   92.3204   11.8562 C.ar    1  UNL1        0.2278
      6 C          63.9885   91.5689   11.2438 C.ar    1  UNL1        0.0832
      7 C          63.6306   90.4394   12.1636 C.ar    1  UNL1        0.1591
      8 N          64.5542   90.4927   13.3444 N.ar    1  UNL1       -0.1578
      9 N          65.4828   91.6552   13.1544 N.ar    1  UNL1       -0.1958
     10 C          66.5702   92.0783   14.0972 C.ar    1  UNL1        0.1132
     11 C          66.2223   92.5715   15.4704 C.ar    1  UNL1        0.0215
     12 C          67.3096   92.9946   16.4131 C.ar    1  UNL1        0.0017
     13 C          68.7448   92.9244   15.9826 C.ar    1  UNL1        0.0024
     14 C          69.0926   92.4311   14.6093 C.ar    1  UNL1        0.0312
     15 C          68.0053   92.0081   13.6666 C.ar    1  UNL1        0.1578
     16 F          68.3532   91.5148   12.2934 F       1  UNL1       -0.2026
     17 O          65.8096   93.5254   11.2728 O.3     1  UNL1       -0.4602
     18 C          67.3258   94.5905    9.4515 C.3     1  UNL1        0.0512
     19 C          66.7145   93.3764   10.0858 C.3     1  UNL1        0.2072
     20 C          61.6215   87.3514   10.6879 C.3     1  UNL1        0.0996
     21 C          60.7954   87.4043    9.4368 C.ar    1  UNL1       -0.0081
     22 C          60.5659   86.1567    8.6364 C.ar    1  UNL1       -0.0030
     23 C          59.7399   86.2096    7.3855 C.ar    1  UNL1       -0.0003
     24 C          59.1434   87.5101    6.9350 C.ar    1  UNL1       -0.0003
     25 C          59.3730   88.7577    7.7354 C.ar    1  UNL1       -0.0045
     26 C          60.1990   88.7048    8.9863 C.ar    1  UNL1       -0.0243
     27 C          60.4287   89.9524    9.7868 C.3     1  UNL1        0.0308
     28 C          61.3574   86.2923   11.7167 C.3     1  UNL1        0.0658
     29 C          62.4546   85.3554   12.1273 C.2     1  UNL1        0.0523
     30 O          62.6917   84.0929   11.3527 O.co2   1  UNL1       -0.5491
     31 O          63.3146   85.6810   13.3124 O.co2   1  UNL1       -0.5491
@<TRIPOS>UNITY_ATOM_ATTR
30 1
charge -1
@<TRIPOS>BOND
     1    18    19    1
     2    19    17    1
     3    17     5    1
     4     5     6   ar
     5     6     7   ar
     6     7     1    1
     7     1     2    2
     8     1     3   am
     9     3    20    1
    10    20    28    1
    11    28    29    1
    12    29    30   ar
    13    29    31   ar
    14    20    21    1
    15    21    22   ar
    16    22    23   ar
    17    23    24   ar
    18    24    25   ar
    19    25    26   ar
    20    26    27    1
    21     7     8   ar
    22     8     9   ar
    23     9    10    1
    24    10    11   ar
    25    11    12   ar
    26    12    13   ar
    27    13    14   ar
    28    14    15   ar
    29    15    16    1
    30     9     5   ar
    31    15    10   ar
    32    26    21   ar
    33     3     4    1
@<TRIPOS>MOLECULE
*****
 31 33 0 0 0
SMALL
GASTEIGER

@<TRIPOS>ATOM
      1 C          63.9281   90.2697   12.9890 C.2     1  UNL1        0.2657
      2 O          63.3227   90.9812   14.1625 O.2     1  UNL1       -0.2684
      3 N          65.0815   90.8843   12.2527 N.am    1  UNL1       -0.2971
      4 H          65.4788   90.4173   11.4824 H       1  UNL1        0.1500
      5 C          62.1565   87.2419   11.3280 C.ar    1  UNL1        0.2278
      6 C          62.4427   88.7124   11.4036 C.ar    1  UNL1        0.0832
      7 C          63.3800   88.9437   12.5516 C.ar    1  UNL1        0.1591
      8 N          63.6731   87.6161   13.1855 N.ar    1  UNL1       -0.1578
      9 N          62.9169   86.5643   12.4293 N.ar    1  UNL1       -0.1958
     10 C          62.9205   85.0934   12.7228 C.ar    1  UNL1        0.1132
     11 C          62.7466   84.1056   11.6073 C.ar    1  UNL1        0.0215
     12 C          62.7502   82.6346   11.9008 C.ar    1  UNL1        0.0017
     13 C          62.9276   82.1514   13.3097 C.ar    1  UNL1        0.0024
     14 C          63.1014   83.1391   14.4251 C.ar    1  UNL1        0.0312
     15 C          63.0979   84.6101   14.1316 C.ar    1  UNL1        0.1578
     16 F          63.2717   85.5979   15.2471 F       1  UNL1       -0.2026
     17 O          61.2661   86.5673   10.3268 O.3     1  UNL1       -0.4602
     18 C          62.7637   85.5674    8.4541 C.3     1  UNL1        0.0512
     19 C          61.6731   86.5028    8.8846 C.3     1  UNL1        0.2072
     20 C          65.6295   92.2103   12.6900 C.3     1  UNL1        0.0996
     21 C          66.4992   92.2972   13.9091 C.ar    1  UNL1       -0.0081
     22 C          65.8975   92.6553   15.2356 C.ar    1  UNL1       -0.0030
     23 C          66.7672   92.7422   16.4547 C.ar    1  UNL1       -0.0003
     24 C          68.2385   92.4710   16.3472 C.ar    1  UNL1       -0.0003
     25 C          68.8402   92.1129   15.0207 C.ar    1  UNL1       -0.0045
     26 C          67.9705   92.0260   13.8017 C.ar    1  UNL1       -0.0243
     27 C          68.5722   91.6678   12.4751 C.3     1  UNL1        0.0308
     28 C          65.3079   93.4494   11.9083 C.3     1  UNL1        0.0658
     29 C          66.0344   93.7381   10.6280 C.2     1  UNL1        0.0523
     30 O          66.7679   92.6394    9.9177 O.co2   1  UNL1       -0.5491
     31 O          66.0272   95.1257   10.0582 O.co2   1  UNL1       -0.5491
@<TRIPOS>UNITY_ATOM_ATTR
30 1
charge -1
@<TRIPOS>BOND
     1    18    19    1
     2    19    17    1
     3    17     5    1
     4     5     6   ar
     5     6     7   ar
     6     7     1    1
     7     1     2    2
     8     1     3   am
     9     3    20    1
    10    20    28    1
    11    28    29    1
    12    29    30   ar
    13    29    31   ar
    14    20    21    1
    15    21    22   ar
    16    22    23   ar
    17    23    24   ar
    18    24    25   ar
    19    25    26   ar
    20    26    27    1
    21     7     8   ar
    22     8     9   ar
    23     9    10    1
    24    10    11   ar
    25    11    12   ar
    26    12    13   ar
    27    13    14   ar
    28    14    15   ar
    29    15    16    1
    30     9     5   ar
    31    15    10   ar
    32    26    21   ar
    33     3     4    1
@<TRIPOS>MOLECULE
*****
 31 33 0 0 0
SMALL
GASTEIGER

@<TRIPOS>ATOM
      1 C          64.0290   87.6343   13.9152 C.2     1  UNL1        0.2657
      2 O          65.0530   87.3391   14.9708 O.2     1  UNL1       -0.2684
      3 N          63.5562   89.0418   13.7017 N.am    1  UNL1       -0.2971
      4 H          62.8841   89.2356   13.0089 H       1  UNL1        0.1500
      5 C          62.3300   85.3138   11.3088 C.ar    1  UNL1        0.2278
      6 C          62.6691   86.6826   11.8201 C.ar    1  UNL1        0.0832
      7 C          63.4778   86.5221   13.0732 C.ar    1  UNL1        0.1591
      8 N          63.6385   85.0541   13.3363 N.ar    1  UNL1       -0.1578
      9 N          62.9291   84.3073   12.2459 N.ar    1  UNL1       -0.1958
     10 C          62.8353   82.8160   12.1154 C.ar    1  UNL1        0.1132
     11 C          63.2693   82.1454   10.8458 C.ar    1  UNL1        0.0215
     12 C          63.1755   80.6540   10.7153 C.ar    1  UNL1        0.0017
     13 C          62.6477   79.8333   11.8546 C.ar    1  UNL1        0.0024
     14 C          62.2138   80.5039   13.1242 C.ar    1  UNL1        0.0312
     15 C          62.3076   81.9952   13.2546 C.ar    1  UNL1        0.1578
     16 F          61.8736   82.6658   14.5243 F       1  UNL1       -0.2026
     17 O          61.5319   85.0056   10.0767 O.3     1  UNL1       -0.4602
     18 C          62.9027   85.1616    7.8752 C.3     1  UNL1        0.0512
     19 C          61.8431   85.7054    8.7869 C.3     1  UNL1        0.2072
     20 C          64.1074   90.1540   14.5438 C.3     1  UNL1        0.0996
     21 C          65.1058   91.1108   13.9625 C.ar    1  UNL1       -0.0081
     22 C          66.3540   91.4465   14.7237 C.ar    1  UNL1       -0.0030
     23 C          67.3524   92.4033   14.1424 C.ar    1  UNL1       -0.0003
     24 C          67.1026   93.0243   12.8000 C.ar    1  UNL1       -0.0003
     25 C          65.8544   92.6885   12.0389 C.ar    1  UNL1       -0.0045
     26 C          64.8560   91.7318   12.6202 C.ar    1  UNL1       -0.0243
     27 C          63.6078   91.3960   11.8590 C.3     1  UNL1        0.0308
     28 C          63.6602   90.3096   15.9671 C.3     1  UNL1        0.0658
     29 C          62.7140   89.3133   16.5691 C.2     1  UNL1        0.0523
     30 O          61.2771   89.2890   16.1393 O.co2   1  UNL1       -0.5491
     31 O          63.2048   88.3413   17.6008 O.co2   1  UNL1       -0.5491
@<TRIPOS>UNITY_ATOM_ATTR
30 1
charge -1
@<TRIPOS>BOND
     1    18    19    1
     2    19    17    1
     3    17     5    1
     4     5     6   ar
     5     6     7   ar
     6     7     1    1
     7     1     2    2
     8     1     3   am
     9     3    20    1
    10    20    28    1
    11    28    29    1
    12    29    30   ar
    13    29    31   ar
    14    20    21    1
    15    21    22   ar
    16    22    23   ar
    17    23    24   ar
    18    24    25   ar
    19    25    26   ar
    20    26    27    1
    21     7     8   ar
    22     8     9   ar
    23     9    10    1
    24    10    11   ar
    25    11    12   ar
    26    12    13   ar
    27    13    14   ar
    28    14    15   ar
    29    15    16    1
    30     9     5   ar
    31    15    10   ar
    32    26    21   ar
    33     3     4    1
