@<TRIPOS>MOLECULE
*****
 53 60 0 0 0
SMALL
GASTEIGER

@<TRIPOS>ATOM
      1 C          63.5069   85.2352   15.6150 C.ar    1  UNL1        0.1736
      2 C          63.8870   86.5091   14.9202 C.ar    1  UNL1        0.0548
      3 C          63.4943   86.7290   13.4894 C.ar    1  UNL1        0.0569
      4 C          62.7215   85.6750   12.7532 C.ar    1  UNL1        0.0560
      5 C          62.3413   84.4011   13.4480 C.ar    1  UNL1        0.0445
      6 C          62.7340   84.1812   14.8789 C.ar    1  UNL1        0.1729
      7 C          62.3288   85.8949   11.3224 C.ar    1  UNL1        0.2075
      8 N          62.7235   85.0360   10.1577 N.ar    1  UNL1       -0.1074
      9 N          62.1111   85.6226    8.9204 N.ar    1  UNL1       -0.0406
     10 N          61.3379   86.8441    9.3204 N.ar    1  UNL1       -0.1285
     11 N          61.4724   87.0125   10.8049 N.ar    1  UNL1       -0.1253
     12 C          60.5657   87.7400    8.3979 C.ar    1  UNL1        0.1045
     13 C          59.7815   87.1512    7.2628 C.ar    1  UNL1        0.0206
     14 C          59.0093   88.0471    6.3403 C.ar    1  UNL1       -0.0026
     15 C          59.0213   89.5319    6.5529 C.ar    1  UNL1       -0.0207
     16 C          59.8055   90.1208    7.6879 C.ar    1  UNL1       -0.0026
     17 C          60.5777   89.2248    8.6104 C.ar    1  UNL1        0.0206
     18 C          58.2492   90.4280    5.6304 C.3     1  UNL1        0.0437
     19 C          58.7560   91.8065    5.3258 C.3     1  UNL1        0.0772
     20 N          59.8938   91.9922    4.3661 N.3     1  UNL1       -0.2657
     21 C          61.1706   91.2293    4.5601 C.3     1  UNL1        0.0972
     22 C          62.3084   91.4150    3.6004 C.3     1  UNL1        0.1246
     23 N          62.1693   92.3635    2.4467 N.ar    1  UNL1       -0.3098
     24 C          63.1123   92.7506    1.3462 C.ar    1  UNL1        0.1784
     25 N          62.4182   93.7526    0.4722 N.ar    1  UNL1       -0.2226
     26 C          61.0463   93.9849    1.0324 C.ar    1  UNL1        0.1147
     27 C          60.8925   93.1264    2.2527 C.ar    1  UNL1        0.0739
     28 C          59.7547   92.9407    3.2124 C.3     1  UNL1        0.1183
     29 N          63.8743   88.0029   12.7946 N.am    1  UNL1       -0.2777
     30 C          63.8529   89.3016   13.5449 C.2     1  UNL1        0.2843
     31 O          63.4513   89.3264   14.9899 O.2     1  UNL1       -0.2665
     32 H          64.1379   87.9866   11.8462 H       1  UNL1        0.1553
     33 C          64.2329   90.5755   12.8501 C.ar    1  UNL1        0.2017
     34 C          63.7337   90.8509   11.4626 C.ar    1  UNL1        0.0843
     35 C          64.1137   92.1248   10.7679 C.ar    1  UNL1        0.2018
     36 O          63.6145   92.4001    9.3805 O.2     1  UNL1       -0.2864
     37 C          64.9931   93.1233   11.4605 C.ar    1  UNL1        0.0735
     38 C          65.3732   94.3972   10.7657 C.ar    1  UNL1        0.0062
     39 C          66.2525   95.3957   11.4583 C.ar    1  UNL1        0.0003
     40 C          66.7518   95.1203   12.8457 C.ar    1  UNL1        0.0031
     41 C          66.3717   93.8464   13.5404 C.ar    1  UNL1        0.0376
     42 C          65.4924   92.8479   12.8478 C.ar    1  UNL1        0.1485
     43 O          65.1123   91.5740   13.5427 O.2     1  UNL1       -0.4487
     44 C          63.2900   85.8556   18.1286 C.3     1  UNL1        0.2526
     45 O          63.8996   85.0153   17.0459 O.3     1  UNL1       -0.4683
     46 O          62.3540   82.9073   15.5737 O.3     1  UNL1       -0.4676
     47 C          62.7097   81.5846   14.9622 C.3     1  UNL1        0.2321
     48 C          63.0942   81.5068   13.5144 C.ar    1  UNL1        0.0212
     49 C          64.2475   82.3163   13.0001 C.ar    1  UNL1       -0.0007
     50 C          64.6320   82.2385   11.5523 C.ar    1  UNL1       -0.0002
     51 C          63.8632   81.3511   10.6188 C.ar    1  UNL1       -0.0000
     52 C          62.7099   80.5415   11.1331 C.ar    1  UNL1       -0.0002
     53 C          62.3254   80.6194   12.5809 C.ar    1  UNL1       -0.0007
@<TRIPOS>BOND
     1    44    45    1
     2    45     1    1
     3     1     2   ar
     4     2     3   ar
     5     3    29    1
     6    29    30   am
     7    30    31    2
     8    30    33    1
     9    33    34   ar
    10    34    35   ar
    11    35    36    2
    12    35    37   ar
    13    37    38   ar
    14    38    39   ar
    15    39    40   ar
    16    40    41   ar
    17    41    42   ar
    18    42    43   ar
    19     3     4   ar
    20     4     7    1
    21     7     8   ar
    22     8     9   ar
    23     9    10   ar
    24    10    12    1
    25    12    13   ar
    26    13    14   ar
    27    14    15   ar
    28    15    18    1
    29    18    19    1
    30    19    20    1
    31    20    21    1
    32    21    22    1
    33    22    23    1
    34    23    24   ar
    35    24    25   ar
    36    25    26   ar
    37    26    27   ar
    38    27    28    1
    39    15    16   ar
    40    16    17   ar
    41    10    11   ar
    42     4     5   ar
    43     5     6   ar
    44     6    46    1
    45    46    47    1
    46    47    48    1
    47    48    49   ar
    48    49    50   ar
    49    50    51   ar
    50    51    52   ar
    51    52    53   ar
    52     6     1   ar
    53    53    48   ar
    54    43    33   ar
    55    11     7   ar
    56    42    37   ar
    57    17    12   ar
    58    28    20    1
    59    27    23   ar
    60    29    32    1
@<TRIPOS>MOLECULE
*****
 53 60 0 0 0
SMALL
GASTEIGER

@<TRIPOS>ATOM
      1 C          64.9269   90.3674   14.2528 C.ar    1  UNL1        0.1736
      2 C          64.5439   88.9351   14.0259 C.ar    1  UNL1        0.0548
      3 C          63.6368   88.5725   12.8877 C.ar    1  UNL1        0.0569
      4 C          63.1126   89.6423   11.9763 C.ar    1  UNL1        0.0560
      5 C          63.4956   91.0748   12.2032 C.ar    1  UNL1        0.0445
      6 C          64.4027   91.4374   13.3414 C.ar    1  UNL1        0.1729
      7 C          62.2054   89.2798   10.8381 C.ar    1  UNL1        0.2075
      8 N          61.5108   87.9638   10.6490 N.ar    1  UNL1       -0.1074
      9 N          60.7096   88.0402    9.3831 N.ar    1  UNL1       -0.0406
     10 N          60.9091   89.4034    8.7899 N.ar    1  UNL1       -0.1285
     11 N          61.8335   90.1696    9.6891 N.ar    1  UNL1       -0.1253
     12 C          60.2924   89.9114    7.5204 C.ar    1  UNL1        0.1045
     13 C          61.1488   90.5780    6.4849 C.ar    1  UNL1        0.0206
     14 C          60.5321   91.0860    5.2154 C.ar    1  UNL1       -0.0026
     15 C          59.0591   90.9274    4.9814 C.ar    1  UNL1       -0.0207
     16 C          58.2026   90.2608    6.0169 C.ar    1  UNL1       -0.0026
     17 C          58.8193   89.7528    7.2864 C.ar    1  UNL1        0.0206
     18 C          58.4423   91.4353    3.7119 C.3     1  UNL1        0.0437
     19 C          58.7787   92.8090    3.2120 C.3     1  UNL1        0.0772
     20 N          59.7784   92.9809    2.1070 N.3     1  UNL1       -0.2657
     21 C          59.3137   93.0838    0.6845 C.3     1  UNL1        0.0972
     22 C          60.3134   93.2558   -0.4205 C.3     1  UNL1        0.1246
     23 N          61.7778   93.3249   -0.1030 N.ar    1  UNL1       -0.3098
     24 C          62.9872   93.4890   -0.9750 C.ar    1  UNL1        0.1784
     25 N          64.1993   93.4876   -0.0915 N.ar    1  UNL1       -0.2226
     26 C          63.7391   93.3225    1.3266 C.ar    1  UNL1        0.1147
     27 C          62.2425   93.2220    1.3195 C.ar    1  UNL1        0.0739
     28 C          61.2428   93.0500    2.4244 C.3     1  UNL1        0.1183
     29 N          63.2538   87.1401   12.6608 N.am    1  UNL1       -0.2777
     30 C          63.8584   86.0590   13.5069 C.2     1  UNL1        0.2843
     31 O          64.8460   86.4104   14.5798 O.2     1  UNL1       -0.2665
     32 H          62.6055   86.9095   11.9566 H       1  UNL1        0.1553
     33 C          63.4754   84.6266   13.2800 C.ar    1  UNL1        0.2017
     34 C          62.7949   83.8507   14.3686 C.ar    1  UNL1        0.0843
     35 C          62.4119   82.4183   14.1418 C.ar    1  UNL1        0.2018
     36 O          61.7314   81.6426   15.2303 O.2     1  UNL1       -0.2864
     37 C          62.7094   81.7617   12.8263 C.ar    1  UNL1        0.0735
     38 C          62.3264   80.3294   12.5995 C.ar    1  UNL1        0.0062
     39 C          62.6238   79.6728   11.2840 C.ar    1  UNL1        0.0003
     40 C          63.3043   80.4485   10.1955 C.ar    1  UNL1        0.0031
     41 C          63.6873   81.8809   10.4223 C.ar    1  UNL1        0.0376
     42 C          63.3898   82.5375   11.7378 C.ar    1  UNL1        0.1485
     43 O          63.7729   83.9700   11.9646 O.2     1  UNL1       -0.4487
     44 C          67.2567   91.1214   15.1209 C.3     1  UNL1        0.2526
     45 O          65.8341   90.7300   15.3910 O.3     1  UNL1       -0.4683
     46 O          64.7857   92.8698   13.5683 O.3     1  UNL1       -0.4676
     47 C          66.1845   93.3270   13.2781 C.3     1  UNL1        0.2321
     48 C          66.6292   93.5269   11.8595 C.ar    1  UNL1        0.0212
     49 C          67.2840   92.4024   11.1133 C.ar    1  UNL1       -0.0007
     50 C          67.7287   92.6022    9.6948 C.ar    1  UNL1       -0.0002
     51 C          67.5186   93.9265    9.0223 C.ar    1  UNL1       -0.0000
     52 C          66.8638   95.0510    9.7685 C.ar    1  UNL1       -0.0002
     53 C          66.4191   94.8512   11.1871 C.ar    1  UNL1       -0.0007
@<TRIPOS>BOND
     1    44    45    1
     2    45     1    1
     3     1     2   ar
     4     2     3   ar
     5     3    29    1
     6    29    30   am
     7    30    31    2
     8    30    33    1
     9    33    34   ar
    10    34    35   ar
    11    35    36    2
    12    35    37   ar
    13    37    38   ar
    14    38    39   ar
    15    39    40   ar
    16    40    41   ar
    17    41    42   ar
    18    42    43   ar
    19     3     4   ar
    20     4     7    1
    21     7     8   ar
    22     8     9   ar
    23     9    10   ar
    24    10    12    1
    25    12    13   ar
    26    13    14   ar
    27    14    15   ar
    28    15    18    1
    29    18    19    1
    30    19    20    1
    31    20    21    1
    32    21    22    1
    33    22    23    1
    34    23    24   ar
    35    24    25   ar
    36    25    26   ar
    37    26    27   ar
    38    27    28    1
    39    15    16   ar
    40    16    17   ar
    41    10    11   ar
    42     4     5   ar
    43     5     6   ar
    44     6    46    1
    45    46    47    1
    46    47    48    1
    47    48    49   ar
    48    49    50   ar
    49    50    51   ar
    50    51    52   ar
    51    52    53   ar
    52     6     1   ar
    53    53    48   ar
    54    43    33   ar
    55    11     7   ar
    56    42    37   ar
    57    17    12   ar
    58    28    20    1
    59    27    23   ar
    60    29    32    1
@<TRIPOS>MOLECULE
*****
 53 60 0 0 0
SMALL
GASTEIGER

@<TRIPOS>ATOM
      1 C          63.0382   84.2814   15.2685 C.ar    1  UNL1        0.1736
      2 C          63.5374   85.6362   14.8618 C.ar    1  UNL1        0.0548
      3 C          63.3288   86.1221   13.4581 C.ar    1  UNL1        0.0569
      4 C          62.6211   85.2532   12.4611 C.ar    1  UNL1        0.0560
      5 C          62.1218   83.8984   12.8678 C.ar    1  UNL1        0.0445
      6 C          62.3303   83.4125   14.2715 C.ar    1  UNL1        0.1729
      7 C          62.4125   85.7391   11.0574 C.ar    1  UNL1        0.2075
      8 N          63.2001   85.3178    9.8523 N.ar    1  UNL1       -0.1074
      9 N          62.6541   86.0500    8.6624 N.ar    1  UNL1       -0.0406
     10 N          61.5290   86.9237    9.1321 N.ar    1  UNL1       -0.1285
     11 N          61.3796   86.7317   10.6122 N.ar    1  UNL1       -0.1253
     12 C          60.6989   87.8304    8.2725 C.ar    1  UNL1        0.1045
     13 C          59.8850   87.2607    7.1486 C.ar    1  UNL1        0.0206
     14 C          59.0549   88.1674    6.2891 C.ar    1  UNL1       -0.0026
     15 C          59.0387   89.6438    6.5534 C.ar    1  UNL1       -0.0207
     16 C          59.8525   90.2135    7.6773 C.ar    1  UNL1       -0.0026
     17 C          60.6826   89.3068    8.5368 C.ar    1  UNL1        0.0206
     18 C          58.2086   90.5506    5.6939 C.3     1  UNL1        0.0437
     19 C          58.7140   91.9177    5.3394 C.3     1  UNL1        0.0772
     20 N          59.8445   92.0701    4.3654 N.3     1  UNL1       -0.2657
     21 C          61.1153   91.2985    4.5647 C.3     1  UNL1        0.0972
     22 C          62.2458   91.4509    3.5907 C.3     1  UNL1        0.1246
     23 N          62.1056   92.3749    2.4173 N.ar    1  UNL1       -0.3098
     24 C          63.0420   92.7274    1.2999 C.ar    1  UNL1        0.1784
     25 N          62.3500   93.7169    0.4100 N.ar    1  UNL1       -0.2226
     26 C          60.9858   93.9758    0.9774 C.ar    1  UNL1        0.1147
     27 C          60.8348   93.1464    2.2180 C.ar    1  UNL1        0.0739
     28 C          59.7043   92.9940    3.1920 C.3     1  UNL1        0.1183
     29 N          63.8281   87.4768   13.0514 N.am    1  UNL1       -0.2777
     30 C          64.0180   88.5475   14.0848 C.2     1  UNL1        0.2843
     31 O          63.7086   88.2633   15.5247 O.2     1  UNL1       -0.2665
     32 H          64.0311   87.6633   12.1063 H       1  UNL1        0.1553
     33 C          64.5172   89.9022   13.6781 C.ar    1  UNL1        0.2017
     34 C          65.2296   90.7690   14.6737 C.ar    1  UNL1        0.0843
     35 C          65.7288   92.1237   14.2670 C.ar    1  UNL1        0.2018
     36 O          66.4411   92.9905   15.2626 O.2     1  UNL1       -0.2864
     37 C          65.5157   92.6117   12.8647 C.ar    1  UNL1        0.0735
     38 C          66.0149   93.9665   12.4580 C.ar    1  UNL1        0.0062
     39 C          65.8018   94.4545   11.0557 C.ar    1  UNL1        0.0003
     40 C          65.0894   93.5877   10.0601 C.ar    1  UNL1        0.0031
     41 C          64.5902   92.2330   10.4668 C.ar    1  UNL1        0.0376
     42 C          64.8033   91.7450   11.8691 C.ar    1  UNL1        0.1485
     43 O          64.3040   90.3902   12.2758 O.2     1  UNL1       -0.4487
     44 C          63.2712   84.7741   17.8088 C.3     1  UNL1        0.2526
     45 O          63.2467   83.7956   16.6722 O.3     1  UNL1       -0.4683
     46 O          61.8311   82.0578   14.6782 O.3     1  UNL1       -0.4676
     47 C          62.5702   80.8257   14.2472 C.3     1  UNL1        0.2321
     48 C          62.7318   80.5202   12.7875 C.ar    1  UNL1        0.0212
     49 C          63.1816   81.5941   11.8418 C.ar    1  UNL1       -0.0007
     50 C          63.3433   81.2886   10.3822 C.ar    1  UNL1       -0.0002
     51 C          63.0552   79.9092    9.8682 C.ar    1  UNL1       -0.0000
     52 C          62.6054   78.8352   10.8139 C.ar    1  UNL1       -0.0002
     53 C          62.4437   79.1408   12.2736 C.ar    1  UNL1       -0.0007
@<TRIPOS>BOND
     1    44    45    1
     2    45     1    1
     3     1     2   ar
     4     2     3   ar
     5     3    29    1
     6    29    30   am
     7    30    31    2
     8    30    33    1
     9    33    34   ar
    10    34    35   ar
    11    35    36    2
    12    35    37   ar
    13    37    38   ar
    14    38    39   ar
    15    39    40   ar
    16    40    41   ar
    17    41    42   ar
    18    42    43   ar
    19     3     4   ar
    20     4     7    1
    21     7     8   ar
    22     8     9   ar
    23     9    10   ar
    24    10    12    1
    25    12    13   ar
    26    13    14   ar
    27    14    15   ar
    28    15    18    1
    29    18    19    1
    30    19    20    1
    31    20    21    1
    32    21    22    1
    33    22    23    1
    34    23    24   ar
    35    24    25   ar
    36    25    26   ar
    37    26    27   ar
    38    27    28    1
    39    15    16   ar
    40    16    17   ar
    41    10    11   ar
    42     4     5   ar
    43     5     6   ar
    44     6    46    1
    45    46    47    1
    46    47    48    1
    47    48    49   ar
    48    49    50   ar
    49    50    51   ar
    50    51    52   ar
    51    52    53   ar
    52     6     1   ar
    53    53    48   ar
    54    43    33   ar
    55    11     7   ar
    56    42    37   ar
    57    17    12   ar
    58    28    20    1
    59    27    23   ar
    60    29    32    1
@<TRIPOS>MOLECULE
*****
 53 60 0 0 0
SMALL
GASTEIGER

@<TRIPOS>ATOM
      1 C          64.9314   90.3721   14.2585 C.ar    1  UNL1        0.1736
      2 C          64.6071   88.9397   13.9535 C.ar    1  UNL1        0.0548
      3 C          63.6804   88.6049   12.8225 C.ar    1  UNL1        0.0569
      4 C          63.0780   89.7025   11.9965 C.ar    1  UNL1        0.0560
      5 C          63.4023   91.1350   12.3015 C.ar    1  UNL1        0.0445
      6 C          64.3290   91.4698   13.4325 C.ar    1  UNL1        0.1729
      7 C          62.1513   89.3677   10.8655 C.ar    1  UNL1        0.2075
      8 N          61.3518   88.1064   10.7246 N.ar    1  UNL1       -0.1074
      9 N          60.5677   88.1946    9.4489 N.ar    1  UNL1       -0.0406
     10 N          60.8827   89.5105    8.8013 N.ar    1  UNL1       -0.1285
     11 N          61.8614   90.2356    9.6768 N.ar    1  UNL1       -0.1253
     12 C          60.3181   90.0131    7.5057 C.ar    1  UNL1        0.1045
     13 C          61.2183   90.6631    6.4972 C.ar    1  UNL1        0.0206
     14 C          60.6538   91.1657    5.2016 C.ar    1  UNL1       -0.0026
     15 C          59.1889   91.0183    4.9145 C.ar    1  UNL1       -0.0207
     16 C          58.2886   90.3683    5.9230 C.ar    1  UNL1       -0.0026
     17 C          58.8532   89.8657    7.2186 C.ar    1  UNL1        0.0206
     18 C          58.6242   91.5209    3.6189 C.3     1  UNL1        0.0437
     19 C          59.0217   92.8715    3.1013 C.3     1  UNL1        0.0772
     20 N          59.8749   92.9824    1.8726 N.3     1  UNL1       -0.2657
     21 C          59.2557   92.8378    0.5140 C.3     1  UNL1        0.0972
     22 C          60.1089   92.9488   -0.7147 C.3     1  UNL1        0.1246
     23 N          61.5812   93.2044   -0.5849 N.ar    1  UNL1       -0.3098
     24 C          62.6668   93.3610   -1.6081 C.ar    1  UNL1        0.1784
     25 N          63.9569   93.6023   -0.8820 N.ar    1  UNL1       -0.2226
     26 C          63.6686   93.5949    0.5900 C.ar    1  UNL1        0.1147
     27 C          62.2004   93.3490    0.7737 C.ar    1  UNL1        0.0739
     28 C          61.3473   93.2380    2.0024 C.3     1  UNL1        0.1183
     29 N          63.3561   87.1726   12.5175 N.am    1  UNL1       -0.2777
     30 C          63.9153   86.0776   13.3769 C.2     1  UNL1        0.2843
     31 O          64.7987   86.4151   14.5412 O.2     1  UNL1       -0.2665
     32 H          62.7763   86.9511   11.7533 H       1  UNL1        0.1553
     33 C          63.5910   84.6452   13.0719 C.ar    1  UNL1        0.2017
     34 C          64.1530   83.9942   11.8429 C.ar    1  UNL1        0.0843
     35 C          63.8287   82.5618   11.5379 C.ar    1  UNL1        0.2018
     36 O          64.3907   81.9109   10.3089 O.2     1  UNL1       -0.2864
     37 C          62.9424   81.7803   12.4619 C.ar    1  UNL1        0.0735
     38 C          62.6181   80.3479   12.1569 C.ar    1  UNL1        0.0062
     39 C          61.7318   79.5665   13.0809 C.ar    1  UNL1        0.0003
     40 C          61.1698   80.2174   14.3099 C.ar    1  UNL1        0.0031
     41 C          61.4941   81.6497   14.6148 C.ar    1  UNL1        0.0376
     42 C          62.3804   82.4312   13.6908 C.ar    1  UNL1        0.1485
     43 O          62.7047   83.8637   13.9959 O.2     1  UNL1       -0.4487
     44 C          67.2564   91.1676   15.1021 C.3     1  UNL1        0.2526
     45 O          65.8581   90.7069   15.3894 O.3     1  UNL1       -0.4683
     46 O          64.6533   92.9022   13.7374 O.3     1  UNL1       -0.4676
     47 C          66.0181   93.4437   13.4311 C.3     1  UNL1        0.2321
     48 C          66.4977   93.5094   12.0113 C.ar    1  UNL1        0.0212
     49 C          67.1915   92.3290   11.3987 C.ar    1  UNL1       -0.0007
     50 C          67.6711   92.3947    9.9790 C.ar    1  UNL1       -0.0002
     51 C          67.4569   93.6408    9.1718 C.ar    1  UNL1       -0.0000
     52 C          66.7631   94.8212    9.7845 C.ar    1  UNL1       -0.0002
     53 C          66.2835   94.7555   11.2043 C.ar    1  UNL1       -0.0007
@<TRIPOS>BOND
     1    44    45    1
     2    45     1    1
     3     1     2   ar
     4     2     3   ar
     5     3    29    1
     6    29    30   am
     7    30    31    2
     8    30    33    1
     9    33    34   ar
    10    34    35   ar
    11    35    36    2
    12    35    37   ar
    13    37    38   ar
    14    38    39   ar
    15    39    40   ar
    16    40    41   ar
    17    41    42   ar
    18    42    43   ar
    19     3     4   ar
    20     4     7    1
    21     7     8   ar
    22     8     9   ar
    23     9    10   ar
    24    10    12    1
    25    12    13   ar
    26    13    14   ar
    27    14    15   ar
    28    15    18    1
    29    18    19    1
    30    19    20    1
    31    20    21    1
    32    21    22    1
    33    22    23    1
    34    23    24   ar
    35    24    25   ar
    36    25    26   ar
    37    26    27   ar
    38    27    28    1
    39    15    16   ar
    40    16    17   ar
    41    10    11   ar
    42     4     5   ar
    43     5     6   ar
    44     6    46    1
    45    46    47    1
    46    47    48    1
    47    48    49   ar
    48    49    50   ar
    49    50    51   ar
    50    51    52   ar
    51    52    53   ar
    52     6     1   ar
    53    53    48   ar
    54    43    33   ar
    55    11     7   ar
    56    42    37   ar
    57    17    12   ar
    58    28    20    1
    59    27    23   ar
    60    29    32    1
@<TRIPOS>MOLECULE
*****
 53 60 0 0 0
SMALL
GASTEIGER

@<TRIPOS>ATOM
      1 C          64.9346   90.4720   14.2400 C.ar    1  UNL1        0.1736
      2 C          64.5455   89.0430   14.0024 C.ar    1  UNL1        0.0548
      3 C          63.6467   88.6914   12.8541 C.ar    1  UNL1        0.0569
      4 C          63.1371   89.7688   11.9434 C.ar    1  UNL1        0.0560
      5 C          63.5262   91.1979   12.1810 C.ar    1  UNL1        0.0445
      6 C          64.4250   91.5495   13.3293 C.ar    1  UNL1        0.1729
      7 C          62.2384   89.4172   10.7950 C.ar    1  UNL1        0.2075
      8 N          61.5019   88.1228   10.6160 N.ar    1  UNL1       -0.1074
      9 N          60.7267   88.2039    9.3344 N.ar    1  UNL1       -0.0406
     10 N          60.9841   89.5485    8.7213 N.ar    1  UNL1       -0.1285
     11 N          61.9184   90.2984    9.6240 N.ar    1  UNL1       -0.1253
     12 C          60.4083   90.0544    7.4319 C.ar    1  UNL1        0.1045
     13 C          58.9412   89.9068    7.1566 C.ar    1  UNL1        0.0206
     14 C          58.3654   90.4127    5.8672 C.ar    1  UNL1       -0.0026
     15 C          59.2568   91.0662    4.8532 C.ar    1  UNL1       -0.0207
     16 C          60.7239   91.2137    5.1285 C.ar    1  UNL1       -0.0026
     17 C          61.2997   90.7078    6.4179 C.ar    1  UNL1        0.0206
     18 C          58.6811   91.5721    3.5637 C.3     1  UNL1        0.0437
     19 C          59.3388   92.7130    2.8454 C.3     1  UNL1        0.0772
     20 N          59.3161   92.7685    1.3466 N.3     1  UNL1       -0.2657
     21 C          60.6036   92.7864    0.5772 C.3     1  UNL1        0.0972
     22 C          60.5810   92.8419   -0.9216 C.3     1  UNL1        0.1246
     23 N          59.2708   92.8794   -1.6510 N.ar    1  UNL1       -0.3098
     24 C          58.9369   92.9361   -3.1123 C.ar    1  UNL1        0.1784
     25 N          57.4430   92.9532   -3.2460 N.ar    1  UNL1       -0.2226
     26 C          56.8537   92.9071   -1.8674 C.ar    1  UNL1        0.1147
     27 C          57.9833   92.8615   -0.8817 C.ar    1  UNL1        0.0739
     28 C          58.0059   92.8060    0.6171 C.3     1  UNL1        0.1183
     29 N          63.2576   87.2624   12.6164 N.am    1  UNL1       -0.2777
     30 C          63.8360   86.1752   13.4729 C.2     1  UNL1        0.2843
     31 O          64.8034   86.5171   14.5671 O.2     1  UNL1       -0.2665
     32 H          62.6226   87.0380   11.8983 H       1  UNL1        0.1553
     33 C          63.4469   84.7462   13.2353 C.ar    1  UNL1        0.2017
     34 C          62.7469   83.9705   14.3117 C.ar    1  UNL1        0.0843
     35 C          62.3578   82.5415   14.0740 C.ar    1  UNL1        0.2018
     36 O          61.6579   81.7659   15.1503 O.2     1  UNL1       -0.2864
     37 C          62.6686   81.8881   12.7601 C.ar    1  UNL1        0.0735
     38 C          62.2795   80.4591   12.5224 C.ar    1  UNL1        0.0062
     39 C          62.5903   79.8057   11.2085 C.ar    1  UNL1        0.0003
     40 C          63.2902   80.5813   10.1322 C.ar    1  UNL1        0.0031
     41 C          63.6794   82.0103   10.3698 C.ar    1  UNL1        0.0376
     42 C          63.3685   82.6637   11.6838 C.ar    1  UNL1        0.1485
     43 O          63.7577   84.0928   11.9214 O.2     1  UNL1       -0.4487
     44 C          67.2715   91.1677   15.1371 C.3     1  UNL1        0.2526
     45 O          65.8333   90.8236   15.3884 O.3     1  UNL1       -0.4683
     46 O          64.8141   92.9785   13.5669 O.3     1  UNL1       -0.4676
     47 C          66.2095   93.4364   13.2619 C.3     1  UNL1        0.2321
     48 C          66.7070   93.4347   11.8468 C.ar    1  UNL1        0.0212
     49 C          67.4260   92.2345   11.3061 C.ar    1  UNL1       -0.0007
     50 C          67.9235   92.2327    9.8910 C.ar    1  UNL1       -0.0002
     51 C          67.7019   93.4312    9.0166 C.ar    1  UNL1       -0.0000
     52 C          66.9829   94.6315    9.5573 C.ar    1  UNL1       -0.0002
     53 C          66.4854   94.6332   10.9724 C.ar    1  UNL1       -0.0007
@<TRIPOS>BOND
     1    44    45    1
     2    45     1    1
     3     1     2   ar
     4     2     3   ar
     5     3    29    1
     6    29    30   am
     7    30    31    2
     8    30    33    1
     9    33    34   ar
    10    34    35   ar
    11    35    36    2
    12    35    37   ar
    13    37    38   ar
    14    38    39   ar
    15    39    40   ar
    16    40    41   ar
    17    41    42   ar
    18    42    43   ar
    19     3     4   ar
    20     4     7    1
    21     7     8   ar
    22     8     9   ar
    23     9    10   ar
    24    10    12    1
    25    12    13   ar
    26    13    14   ar
    27    14    15   ar
    28    15    18    1
    29    18    19    1
    30    19    20    1
    31    20    21    1
    32    21    22    1
    33    22    23    1
    34    23    24   ar
    35    24    25   ar
    36    25    26   ar
    37    26    27   ar
    38    27    28    1
    39    15    16   ar
    40    16    17   ar
    41    10    11   ar
    42     4     5   ar
    43     5     6   ar
    44     6    46    1
    45    46    47    1
    46    47    48    1
    47    48    49   ar
    48    49    50   ar
    49    50    51   ar
    50    51    52   ar
    51    52    53   ar
    52     6     1   ar
    53    53    48   ar
    54    43    33   ar
    55    11     7   ar
    56    42    37   ar
    57    17    12   ar
    58    28    20    1
    59    27    23   ar
    60    29    32    1
@<TRIPOS>MOLECULE
*****
 53 60 0 0 0
SMALL
GASTEIGER

@<TRIPOS>ATOM
      1 C          63.8046   83.7477   14.6969 C.ar    1  UNL1        0.1736
      2 C          64.3687   85.1058   14.4011 C.ar    1  UNL1        0.0548
      3 C          63.5522   86.1074   13.6395 C.ar    1  UNL1        0.0569
      4 C          62.1717   85.7511   13.1737 C.ar    1  UNL1        0.0560
      5 C          61.6075   84.3930   13.4695 C.ar    1  UNL1        0.0445
      6 C          62.4240   83.3913   14.2311 C.ar    1  UNL1        0.1729
      7 C          61.3552   86.7528   12.4121 C.ar    1  UNL1        0.2075
      8 N          60.4096   87.7541   13.0064 N.ar    1  UNL1       -0.1074
      9 N          59.8109   88.5492   11.8841 N.ar    1  UNL1       -0.0406
     10 N          60.3866   88.0393   10.5962 N.ar    1  UNL1       -0.1285
     11 N          61.3410   86.9290   10.9225 N.ar    1  UNL1       -0.1253
     12 C          60.0644   88.5499    9.2231 C.ar    1  UNL1        0.1045
     13 C          60.4553   89.9438    8.8304 C.ar    1  UNL1        0.0206
     14 C          60.1332   90.4544    7.4573 C.ar    1  UNL1       -0.0026
     15 C          59.4201   89.5711    6.4769 C.ar    1  UNL1       -0.0207
     16 C          59.0291   88.1772    6.8696 C.ar    1  UNL1       -0.0026
     17 C          59.3513   87.6666    8.2427 C.ar    1  UNL1        0.0206
     18 C          59.0978   90.0816    5.1037 C.3     1  UNL1        0.0437
     19 C          59.1264   91.5553    4.8257 C.3     1  UNL1        0.0772
     20 N          60.0080   92.0967    3.7395 N.3     1  UNL1       -0.2657
     21 C          59.4160   92.9180    2.6327 C.3     1  UNL1        0.0972
     22 C          60.2975   93.4594    1.5466 C.3     1  UNL1        0.1246
     23 N          61.7710   93.1795    1.5672 N.ar    1  UNL1       -0.3098
     24 C          62.8812   93.5769    0.6401 C.ar    1  UNL1        0.1784
     25 N          64.1593   93.0013    1.1739 N.ar    1  UNL1       -0.2226
     26 C          63.8390   92.2481    2.4309 C.ar    1  UNL1        0.1147
     27 C          62.3630   92.3583    2.6740 C.ar    1  UNL1        0.0739
     28 C          61.4815   91.8169    3.7602 C.3     1  UNL1        0.1183
     29 N          64.1163   87.4655   13.3437 N.am    1  UNL1       -0.2777
     30 C          64.0695   88.5409   14.3884 C.2     1  UNL1        0.2843
     31 O          63.4585   88.2582   15.7289 O.2     1  UNL1       -0.2665
     32 H          64.5173   87.6510   12.4639 H       1  UNL1        0.1553
     33 C          64.6336   89.8989   14.0926 C.ar    1  UNL1        0.2017
     34 C          65.3023   90.6864   15.1802 C.ar    1  UNL1        0.0843
     35 C          65.8664   92.0445   14.8844 C.ar    1  UNL1        0.2018
     36 O          66.5351   92.8319   15.9719 O.2     1  UNL1       -0.2864
     37 C          65.7618   92.6150   13.5011 C.ar    1  UNL1        0.0735
     38 C          66.3259   93.9731   13.2053 C.ar    1  UNL1        0.0062
     39 C          66.2213   94.5436   11.8220 C.ar    1  UNL1        0.0003
     40 C          65.5526   93.7562   10.7345 C.ar    1  UNL1        0.0031
     41 C          64.9885   92.3982   11.0303 C.ar    1  UNL1        0.0376
     42 C          65.0931   91.8276   12.4136 C.ar    1  UNL1        0.1485
     43 O          64.5290   90.4695   12.7093 O.2     1  UNL1       -0.4487
     44 C          65.2670   81.6007   14.7367 C.3     1  UNL1        0.2526
     45 O          64.6211   82.7461   15.4584 O.3     1  UNL1       -0.4683
     46 O          61.8599   82.0333   14.5269 O.3     1  UNL1       -0.4676
     47 C          62.5853   80.8035   14.0671 C.3     1  UNL1        0.2321
     48 C          62.7320   80.5234   12.6008 C.ar    1  UNL1        0.0212
     49 C          62.5178   79.1340   12.0776 C.ar    1  UNL1       -0.0007
     50 C          62.6644   78.8538   10.6114 C.ar    1  UNL1       -0.0002
     51 C          63.0253   79.9630    9.6682 C.ar    1  UNL1       -0.0000
     52 C          63.2394   81.3524   10.1914 C.ar    1  UNL1       -0.0002
     53 C          63.0928   81.6326   11.6577 C.ar    1  UNL1       -0.0007
@<TRIPOS>BOND
     1    44    45    1
     2    45     1    1
     3     1     2   ar
     4     2     3   ar
     5     3    29    1
     6    29    30   am
     7    30    31    2
     8    30    33    1
     9    33    34   ar
    10    34    35   ar
    11    35    36    2
    12    35    37   ar
    13    37    38   ar
    14    38    39   ar
    15    39    40   ar
    16    40    41   ar
    17    41    42   ar
    18    42    43   ar
    19     3     4   ar
    20     4     7    1
    21     7     8   ar
    22     8     9   ar
    23     9    10   ar
    24    10    12    1
    25    12    13   ar
    26    13    14   ar
    27    14    15   ar
    28    15    18    1
    29    18    19    1
    30    19    20    1
    31    20    21    1
    32    21    22    1
    33    22    23    1
    34    23    24   ar
    35    24    25   ar
    36    25    26   ar
    37    26    27   ar
    38    27    28    1
    39    15    16   ar
    40    16    17   ar
    41    10    11   ar
    42     4     5   ar
    43     5     6   ar
    44     6    46    1
    45    46    47    1
    46    47    48    1
    47    48    49   ar
    48    49    50   ar
    49    50    51   ar
    50    51    52   ar
    51    52    53   ar
    52     6     1   ar
    53    53    48   ar
    54    43    33   ar
    55    11     7   ar
    56    42    37   ar
    57    17    12   ar
    58    28    20    1
    59    27    23   ar
    60    29    32    1
@<TRIPOS>MOLECULE
*****
 53 60 0 0 0
SMALL
GASTEIGER

@<TRIPOS>ATOM
      1 C          63.5152   83.5751   15.1033 C.ar    1  UNL1        0.1736
      2 C          64.2189   84.8905   15.2595 C.ar    1  UNL1        0.0548
      3 C          63.9179   86.0185   14.3177 C.ar    1  UNL1        0.0569
      4 C          62.9133   85.8312   13.2198 C.ar    1  UNL1        0.0560
      5 C          62.2095   84.5157   13.0635 C.ar    1  UNL1        0.0445
      6 C          62.5105   83.3877   14.0053 C.ar    1  UNL1        0.1729
      7 C          62.6124   86.9593   12.2780 C.ar    1  UNL1        0.2075
      8 N          63.2052   88.3360   12.3334 N.ar    1  UNL1       -0.1074
      9 N          62.6250   89.1363   11.2051 N.ar    1  UNL1       -0.0406
     10 N          61.6736   88.2541   10.4524 N.ar    1  UNL1       -0.1285
     11 N          61.6658   86.9086   11.1155 N.ar    1  UNL1       -0.1253
     12 C          60.8709   88.6482    9.2481 C.ar    1  UNL1        0.1045
     13 C          60.8097   90.0861    8.8252 C.ar    1  UNL1        0.0206
     14 C          60.0070   90.4801    7.6209 C.ar    1  UNL1       -0.0026
     15 C          59.2656   89.4363    6.8395 C.ar    1  UNL1       -0.0207
     16 C          59.3268   87.9984    7.2623 C.ar    1  UNL1       -0.0026
     17 C          60.1295   87.6044    8.4667 C.ar    1  UNL1        0.0206
     18 C          58.4628   89.8302    5.6351 C.3     1  UNL1        0.0437
     19 C          58.4936   91.2473    5.1441 C.3     1  UNL1        0.0772
     20 N          59.6218   91.7150    4.2733 N.3     1  UNL1       -0.2657
     21 C          61.0005   91.1572    4.4682 C.3     1  UNL1        0.0972
     22 C          62.1288   91.6250    3.5974 C.3     1  UNL1        0.1246
     23 N          61.8783   92.6505    2.5318 N.ar    1  UNL1       -0.3098
     24 C          62.7864   93.2981    1.5288 C.ar    1  UNL1        0.1784
     25 N          61.9689   94.2561    0.7140 N.ar    1  UNL1       -0.2226
     26 C          60.5556   94.2006    1.2136 C.ar    1  UNL1        0.1147
     27 C          60.4996   93.2084    2.3370 C.ar    1  UNL1        0.0739
     28 C          59.3714   92.7406    3.2077 C.3     1  UNL1        0.1183
     29 N          64.6216   87.3339   14.4740 N.am    1  UNL1       -0.2777
     30 C          63.9939   88.4287   15.2848 C.2     1  UNL1        0.2843
     31 O          62.6624   88.2081   15.9394 O.2     1  UNL1       -0.2665
     32 H          65.4955   87.4788   14.0443 H       1  UNL1        0.1553
     33 C          64.6976   89.7442   15.4410 C.ar    1  UNL1        0.2017
     34 C          64.0765   90.8340   16.2636 C.ar    1  UNL1        0.0843
     35 C          64.7802   92.1494   16.4198 C.ar    1  UNL1        0.2018
     36 O          64.1592   93.2391   17.2424 O.2     1  UNL1       -0.2864
     37 C          66.1050   92.3751   15.7535 C.ar    1  UNL1        0.0735
     38 C          66.8087   93.6905   15.9097 C.ar    1  UNL1        0.0062
     39 C          68.1335   93.9161   15.2433 C.ar    1  UNL1        0.0003
     40 C          68.7546   92.8264   14.4208 C.ar    1  UNL1        0.0031
     41 C          68.0509   91.5110   14.2646 C.ar    1  UNL1        0.0376
     42 C          66.7261   91.2853   14.9309 C.ar    1  UNL1        0.1485
     43 O          66.0224   89.9698   14.7747 O.2     1  UNL1       -0.4487
     44 C          64.8370   81.4125   15.6743 C.3     1  UNL1        0.2526
     45 O          63.8161   82.4470   16.0450 O.3     1  UNL1       -0.4683
     46 O          61.8068   82.0722   13.8491 O.3     1  UNL1       -0.4676
     47 C          62.5991   80.8220   13.6062 C.3     1  UNL1        0.2321
     48 C          62.7317   80.2764   12.2152 C.ar    1  UNL1        0.0212
     49 C          63.0646   81.1955   11.0776 C.ar    1  UNL1       -0.0007
     50 C          63.1972   80.6500    9.6867 C.ar    1  UNL1       -0.0002
     51 C          62.9968   79.1851    9.4333 C.ar    1  UNL1       -0.0000
     52 C          62.6639   78.2659   10.5710 C.ar    1  UNL1       -0.0002
     53 C          62.5313   78.8116   11.9620 C.ar    1  UNL1       -0.0007
@<TRIPOS>BOND
     1    44    45    1
     2    45     1    1
     3     1     2   ar
     4     2     3   ar
     5     3    29    1
     6    29    30   am
     7    30    31    2
     8    30    33    1
     9    33    34   ar
    10    34    35   ar
    11    35    36    2
    12    35    37   ar
    13    37    38   ar
    14    38    39   ar
    15    39    40   ar
    16    40    41   ar
    17    41    42   ar
    18    42    43   ar
    19     3     4   ar
    20     4     7    1
    21     7     8   ar
    22     8     9   ar
    23     9    10   ar
    24    10    12    1
    25    12    13   ar
    26    13    14   ar
    27    14    15   ar
    28    15    18    1
    29    18    19    1
    30    19    20    1
    31    20    21    1
    32    21    22    1
    33    22    23    1
    34    23    24   ar
    35    24    25   ar
    36    25    26   ar
    37    26    27   ar
    38    27    28    1
    39    15    16   ar
    40    16    17   ar
    41    10    11   ar
    42     4     5   ar
    43     5     6   ar
    44     6    46    1
    45    46    47    1
    46    47    48    1
    47    48    49   ar
    48    49    50   ar
    49    50    51   ar
    50    51    52   ar
    51    52    53   ar
    52     6     1   ar
    53    53    48   ar
    54    43    33   ar
    55    11     7   ar
    56    42    37   ar
    57    17    12   ar
    58    28    20    1
    59    27    23   ar
    60    29    32    1
