@<TRIPOS>MOLECULE
*****
 21 22 0 0 0
SMALL
GASTEIGER

@<TRIPOS>ATOM
      1 C          64.1019   87.8776   14.1276 C.2     1  UNL1        0.0001
      2 C          64.3691   86.5195   14.7056 C.2     1  UNL1        0.0001
      3 C          63.8342   85.2955   14.0231 C.ar    1  UNL1        0.0032
      4 C          63.1858   85.4110   12.6755 C.ar    1  UNL1        0.0033
      5 C          62.6509   84.1870   11.9931 C.ar    1  UNL1        0.0402
      6 C          62.7645   82.8474   12.6584 C.ar    1  UNL1        0.1764
      7 C          63.4129   82.7318   14.0060 C.ar    1  UNL1        0.1764
      8 C          63.9478   83.9558   14.6884 C.ar    1  UNL1        0.0402
      9 O          63.3819   81.2884   14.4131 O.3     1  UNL1       -0.4346
     10 C          62.7144   80.5120   13.3170 C.3     1  UNL1        0.4294
     11 O          62.3327   81.4755   12.2325 O.3     1  UNL1       -0.4346
     12 C          64.7698   90.3872   14.0485 C.2     1  UNL1        0.0579
     13 C          64.6368   89.1016   14.8100 C.2     1  UNL1        0.0047
     14 N          66.3942   92.4144   14.0846 N.am    1  UNL1       -0.2761
     15 C          65.3047   91.6112   14.7309 C.2     1  UNL1        0.2492
     16 O          64.7500   92.0319   16.0596 O.2     1  UNL1       -0.2699
     17 C          66.9291   93.6384   14.7671 C.3     1  UNL1        0.0938
     18 C          68.0617   93.5183   15.7432 C.3     1  UNL1        0.0233
     19 C          66.9488   91.9937   12.7560 C.3     1  UNL1        0.0937
     20 C          65.1730   92.4637   10.9187 C.3     1  UNL1        0.0018
     21 C          66.5303   92.7117   11.5072 C.3     1  UNL1        0.0215
@<TRIPOS>BOND
     1    20    21    1
     2    21    19    1
     3    19    14    1
     4    14    17    1
     5    17    18    1
     6    14    15   am
     7    15    16    2
     8    15    12    1
     9    12    13    2
    10    13     1    1
    11     1     2    2
    12     2     3    1
    13     3     4   ar
    14     4     5   ar
    15     5     6   ar
    16     6     7   ar
    17     7     8   ar
    18     7     9    1
    19     9    10    1
    20    10    11    1
    21     8     3   ar
    22    11     6    1
@<TRIPOS>MOLECULE
*****
 21 22 0 0 0
SMALL
GASTEIGER

@<TRIPOS>ATOM
      1 C          63.6541   88.6858   13.3824 C.2     1  UNL1        0.0001
      2 C          63.1396   89.2808   12.1052 C.2     1  UNL1        0.0001
      3 C          62.3041   88.4521   11.1749 C.ar    1  UNL1        0.0032
      4 C          62.3508   86.9552   11.2570 C.ar    1  UNL1        0.0033
      5 C          61.5153   86.1266   10.3267 C.ar    1  UNL1        0.0402
      6 C          60.6331   86.7950    9.3144 C.ar    1  UNL1        0.1764
      7 C          60.5864   88.2920    9.2323 C.ar    1  UNL1        0.1764
      8 C          61.4219   89.1206   10.1625 C.ar    1  UNL1        0.0402
      9 O          59.6288   88.6667    8.1402 O.3     1  UNL1       -0.4346
     10 C          59.0837   87.4012    7.5474 C.3     1  UNL1        0.4294
     11 O          59.7044   86.2445    8.2731 O.3     1  UNL1       -0.4346
     12 C          64.1711   90.9663   14.5147 C.2     1  UNL1        0.0579
     13 C          64.4896   89.5144   14.3127 C.2     1  UNL1        0.0047
     14 N          66.3693   92.2556   15.0200 N.am    1  UNL1       -0.2761
     15 C          65.0066   91.7949   15.4450 C.2     1  UNL1        0.2492
     16 O          64.4793   92.1628   16.8002 O.2     1  UNL1       -0.2699
     17 C          67.2048   93.0842   15.9502 C.3     1  UNL1        0.0938
     18 C          68.7006   92.9780   15.9107 C.3     1  UNL1        0.0233
     19 C          66.8966   91.8877   13.6647 C.3     1  UNL1        0.0937
     20 C          65.6765   92.3353   11.4151 C.3     1  UNL1        0.0018
     21 C          66.6269   92.7779   12.4880 C.3     1  UNL1        0.0215
@<TRIPOS>BOND
     1    20    21    1
     2    21    19    1
     3    19    14    1
     4    14    17    1
     5    17    18    1
     6    14    15   am
     7    15    16    2
     8    15    12    1
     9    12    13    2
    10    13     1    1
    11     1     2    2
    12     2     3    1
    13     3     4   ar
    14     4     5   ar
    15     5     6   ar
    16     6     7   ar
    17     7     8   ar
    18     7     9    1
    19     9    10    1
    20    10    11    1
    21     8     3   ar
    22    11     6    1
@<TRIPOS>MOLECULE
*****
 21 22 0 0 0
SMALL
GASTEIGER

@<TRIPOS>ATOM
      1 C          64.6387   88.1367   14.6123 C.2     1  UNL1        0.0001
      2 C          63.8900   89.4022   14.3159 C.2     1  UNL1        0.0001
      3 C          64.6330   90.6255   13.8668 C.ar    1  UNL1        0.0032
      4 C          65.6110   91.2900   14.7897 C.ar    1  UNL1        0.0033
      5 C          66.3539   92.5133   14.3406 C.ar    1  UNL1        0.0402
      6 C          66.1187   93.0721   12.9686 C.ar    1  UNL1        0.1764
      7 C          65.1406   92.4076   12.0457 C.ar    1  UNL1        0.1764
      8 C          64.3977   91.1843   12.4947 C.ar    1  UNL1        0.0402
      9 O          65.1171   93.1807   10.7605 O.3     1  UNL1       -0.4346
     10 C          66.0807   94.3231   10.8892 C.3     1  UNL1        0.4294
     11 O          66.6997   94.2559   12.2538 O.3     1  UNL1       -0.4346
     12 C          63.9800   85.6483   14.2597 C.2     1  UNL1        0.0579
     13 C          63.8958   86.9134   15.0614 C.2     1  UNL1        0.0047
     14 N          63.2884   83.1721   13.8857 N.am    1  UNL1       -0.2761
     15 C          63.2371   84.4251   14.7088 C.2     1  UNL1        0.2492
     16 O          62.4430   84.4547   15.9810 O.2     1  UNL1       -0.2699
     17 C          62.5454   81.9489   14.3348 C.3     1  UNL1        0.0938
     18 C          62.3270   80.8118   13.3811 C.3     1  UNL1        0.0233
     19 C          64.0825   83.1425   12.6135 C.3     1  UNL1        0.0937
     20 C          64.0422   83.1551   10.0158 C.3     1  UNL1        0.0018
     21 C          63.4536   83.5867   11.3262 C.3     1  UNL1        0.0215
@<TRIPOS>BOND
     1    20    21    1
     2    21    19    1
     3    19    14    1
     4    14    17    1
     5    17    18    1
     6    14    15   am
     7    15    16    2
     8    15    12    1
     9    12    13    2
    10    13     1    1
    11     1     2    2
    12     2     3    1
    13     3     4   ar
    14     4     5   ar
    15     5     6   ar
    16     6     7   ar
    17     7     8   ar
    18     7     9    1
    19     9    10    1
    20    10    11    1
    21     8     3   ar
    22    11     6    1
@<TRIPOS>MOLECULE
*****
 21 22 0 0 0
SMALL
GASTEIGER

@<TRIPOS>ATOM
      1 C          64.5451   87.2336   14.8386 C.2     1  UNL1        0.0001
      2 C          63.7726   88.0724   13.8642 C.2     1  UNL1        0.0001
      3 C          64.2212   89.4706   13.5576 C.ar    1  UNL1        0.0032
      4 C          63.7050   90.1732   12.3370 C.ar    1  UNL1        0.0033
      5 C          64.1536   91.5713   12.0304 C.ar    1  UNL1        0.0402
      6 C          65.1184   92.2668   12.9444 C.ar    1  UNL1        0.1764
      7 C          65.6346   91.5642   14.1650 C.ar    1  UNL1        0.1764
      8 C          65.1860   90.1661   14.4717 C.ar    1  UNL1        0.0402
      9 O          66.5702   92.4967   14.8758 O.3     1  UNL1       -0.4346
     10 C          66.6322   93.7756   14.0944 C.3     1  UNL1        0.4294
     11 O          65.7350   93.6336   12.9008 O.3     1  UNL1       -0.4346
     12 C          64.0642   84.8028   14.0576 C.2     1  UNL1        0.0579
     13 C          64.0965   85.8355   15.1452 C.2     1  UNL1        0.0047
     14 N          62.9638   82.5753   13.2978 N.am    1  UNL1       -0.2761
     15 C          63.6156   83.4046   14.3642 C.2     1  UNL1        0.2492
     16 O          63.8187   82.8359   15.7373 O.2     1  UNL1       -0.2699
     17 C          62.5152   81.1772   13.6043 C.3     1  UNL1        0.0938
     18 C          61.0971   80.9186   14.0193 C.3     1  UNL1        0.0233
     19 C          62.7607   83.1440   11.9247 C.3     1  UNL1        0.0937
     20 C          63.8929   83.6392    9.6394 C.3     1  UNL1        0.0018
     21 C          63.6509   82.7154   10.7961 C.3     1  UNL1        0.0215
@<TRIPOS>BOND
     1    20    21    1
     2    21    19    1
     3    19    14    1
     4    14    17    1
     5    17    18    1
     6    14    15   am
     7    15    16    2
     8    15    12    1
     9    12    13    2
    10    13     1    1
    11     1     2    2
    12     2     3    1
    13     3     4   ar
    14     4     5   ar
    15     5     6   ar
    16     6     7   ar
    17     7     8   ar
    18     7     9    1
    19     9    10    1
    20    10    11    1
    21     8     3   ar
    22    11     6    1
@<TRIPOS>MOLECULE
*****
 21 22 0 0 0
SMALL
GASTEIGER

@<TRIPOS>ATOM
      1 C          63.3141   90.9070   11.1341 C.2     1  UNL1        0.0001
      2 C          63.4700   90.2738   12.4849 C.2     1  UNL1        0.0001
      3 C          64.2848   90.9562   13.5436 C.ar    1  UNL1        0.0032
      4 C          63.8557   90.8898   14.9793 C.ar    1  UNL1        0.0033
      5 C          64.6704   91.5722   16.0379 C.ar    1  UNL1        0.0402
      6 C          65.9142   92.3210   15.6607 C.ar    1  UNL1        0.1764
      7 C          66.3433   92.3874   14.2249 C.ar    1  UNL1        0.1764
      8 C          65.5286   91.7051   13.1663 C.ar    1  UNL1        0.0402
      9 O          67.6062   93.1938   14.1553 O.3     1  UNL1       -0.4346
     10 C          67.9576   93.6257   15.5482 C.3     1  UNL1        0.4294
     11 O          66.9119   93.0863   16.4785 O.3     1  UNL1       -0.4346
     12 C          61.8784   88.8875   10.3527 C.2     1  UNL1        0.0579
     13 C          62.4994   90.2246   10.0755 C.2     1  UNL1        0.0047
     14 N          61.3150   86.7628    8.9678 N.am    1  UNL1       -0.2761
     15 C          61.0637   88.2051    9.2941 C.2     1  UNL1        0.2492
     16 O          59.9978   88.9651    8.5618 O.2     1  UNL1       -0.2699
     17 C          60.5003   86.0804    7.9092 C.3     1  UNL1        0.0938
     18 C          61.1685   85.1801    6.9127 C.3     1  UNL1        0.0233
     19 C          62.3809   86.0028    9.7001 C.3     1  UNL1        0.0937
     20 C          62.7264   85.4619   12.2176 C.3     1  UNL1        0.0018
     21 C          62.0278   85.1992   10.9165 C.3     1  UNL1        0.0215
@<TRIPOS>BOND
     1    20    21    1
     2    21    19    1
     3    19    14    1
     4    14    17    1
     5    17    18    1
     6    14    15   am
     7    15    16    2
     8    15    12    1
     9    12    13    2
    10    13     1    1
    11     1     2    2
    12     2     3    1
    13     3     4   ar
    14     4     5   ar
    15     5     6   ar
    16     6     7   ar
    17     7     8   ar
    18     7     9    1
    19     9    10    1
    20    10    11    1
    21     8     3   ar
    22    11     6    1
@<TRIPOS>MOLECULE
*****
 21 22 0 0 0
SMALL
GASTEIGER

@<TRIPOS>ATOM
      1 C          63.2130   90.9248   10.4859 C.2     1  UNL1        0.0001
      2 C          62.1841   89.9438   10.9645 C.2     1  UNL1        0.0001
      3 C          61.5708   88.9705   10.0019 C.ar    1  UNL1        0.0032
      4 C          60.2187   89.2475    9.4145 C.ar    1  UNL1        0.0033
      5 C          59.6054   88.2743    8.4519 C.ar    1  UNL1        0.0402
      6 C          60.3442   87.0240    8.0767 C.ar    1  UNL1        0.1764
      7 C          61.6964   86.7469    8.6640 C.ar    1  UNL1        0.1764
      8 C          62.3097   87.7202    9.6266 C.ar    1  UNL1        0.0402
      9 O          62.1832   85.4404    8.1109 O.3     1  UNL1       -0.4346
     10 C          61.1319   84.9099    7.1818 C.3     1  UNL1        0.4294
     11 O          59.9954   85.8886    7.1606 O.3     1  UNL1       -0.4346
     12 C          65.3027   92.1605   11.4111 C.2     1  UNL1        0.0579
     13 C          63.8263   91.8980   11.4485 C.2     1  UNL1        0.0047
     14 N          66.3489   92.6718   13.7336 N.am    1  UNL1       -0.2761
     15 C          65.9160   93.1337   12.3737 C.2     1  UNL1        0.2492
     16 O          66.0963   94.5689   11.9765 O.2     1  UNL1       -0.2699
     17 C          66.9622   93.6451   14.6962 C.3     1  UNL1        0.0938
     18 C          67.9544   93.1680   15.7150 C.3     1  UNL1        0.0233
     19 C          66.1686   91.2367   14.1308 C.3     1  UNL1        0.0937
     20 C          64.2024   89.5437   14.2639 C.3     1  UNL1        0.0018
     21 C          64.8812   90.7876   14.7560 C.3     1  UNL1        0.0215
@<TRIPOS>BOND
     1    20    21    1
     2    21    19    1
     3    19    14    1
     4    14    17    1
     5    17    18    1
     6    14    15   am
     7    15    16    2
     8    15    12    1
     9    12    13    2
    10    13     1    1
    11     1     2    2
    12     2     3    1
    13     3     4   ar
    14     4     5   ar
    15     5     6   ar
    16     6     7   ar
    17     7     8   ar
    18     7     9    1
    19     9    10    1
    20    10    11    1
    21     8     3   ar
    22    11     6    1
@<TRIPOS>MOLECULE
*****
 21 22 0 0 0
SMALL
GASTEIGER

@<TRIPOS>ATOM
      1 C          62.2534   90.0682   10.6277 C.2     1  UNL1        0.0001
      2 C          62.1316   88.5968   10.8926 C.2     1  UNL1        0.0001
      3 C          61.5818   87.6871    9.8341 C.ar    1  UNL1        0.0032
      4 C          60.1183   87.7158    9.5068 C.ar    1  UNL1        0.0033
      5 C          59.5685   86.8061    8.4484 C.ar    1  UNL1        0.0402
      6 C          60.4823   85.8678    7.7173 C.ar    1  UNL1        0.1764
      7 C          61.9459   85.8390    8.0446 C.ar    1  UNL1        0.1764
      8 C          62.4957   86.7487    9.1031 C.ar    1  UNL1        0.0402
      9 O          62.5981   84.8154    7.1632 O.3     1  UNL1       -0.4346
     10 C          61.5375   84.2115    6.2911 C.3     1  UNL1        0.4294
     11 O          60.2299   84.8619    6.6336 O.3     1  UNL1       -0.4346
     12 C          64.2185   90.8132   12.1552 C.2     1  UNL1        0.0579
     13 C          62.8032   90.9778   11.6861 C.2     1  UNL1        0.0047
     14 N          65.8432   92.7107   12.8692 N.am    1  UNL1       -0.2761
     15 C          64.7683   91.7228   13.2136 C.2     1  UNL1        0.2492
     16 O          64.2431   91.6446   14.6165 O.2     1  UNL1       -0.2699
     17 C          66.3930   93.6203   13.9276 C.3     1  UNL1        0.0938
     18 C          67.4842   93.1389   14.8373 C.3     1  UNL1        0.0233
     19 C          66.3683   92.7889   11.4663 C.3     1  UNL1        0.0937
     20 C          68.1410   92.1010    9.6959 C.3     1  UNL1        0.0018
     21 C          67.6921   92.1712   11.1254 C.3     1  UNL1        0.0215
@<TRIPOS>BOND
     1    20    21    1
     2    21    19    1
     3    19    14    1
     4    14    17    1
     5    17    18    1
     6    14    15   am
     7    15    16    2
     8    15    12    1
     9    12    13    2
    10    13     1    1
    11     1     2    2
    12     2     3    1
    13     3     4   ar
    14     4     5   ar
    15     5     6   ar
    16     6     7   ar
    17     7     8   ar
    18     7     9    1
    19     9    10    1
    20    10    11    1
    21     8     3   ar
    22    11     6    1
@<TRIPOS>MOLECULE
*****
 21 22 0 0 0
SMALL
GASTEIGER

@<TRIPOS>ATOM
      1 C          63.2019   90.0187   12.3947 C.2     1  UNL1        0.0001
      2 C          63.9073   91.2018   11.8009 C.2     1  UNL1        0.0001
      3 C          65.0110   91.8761   12.5607 C.ar    1  UNL1        0.0032
      4 C          65.4883   93.2350   12.1421 C.ar    1  UNL1        0.0033
      5 C          66.5920   93.9093   12.9019 C.ar    1  UNL1        0.0402
      6 C          67.2183   93.2245   14.0804 C.ar    1  UNL1        0.1764
      7 C          66.7409   91.8655   14.4991 C.ar    1  UNL1        0.1764
      8 C          65.6373   91.1913   13.7393 C.ar    1  UNL1        0.0402
      9 O          67.5433   91.4398   15.6928 O.3     1  UNL1       -0.4346
     10 C          68.5166   92.5357   16.0118 C.3     1  UNL1        0.4294
     11 O          68.3157   93.6387   15.0153 O.3     1  UNL1       -0.4346
     12 C          62.2135   89.1602   10.1506 C.2     1  UNL1        0.0579
     13 C          62.0983   89.3445   11.6349 C.2     1  UNL1        0.0047
     14 N          61.1126   86.9946    9.2295 N.am    1  UNL1       -0.2761
     15 C          61.1098   88.4859    9.3908 C.2     1  UNL1        0.2492
     16 O          60.0034   89.3030    8.7923 O.2     1  UNL1       -0.2699
     17 C          60.0090   86.3204    8.4696 C.3     1  UNL1        0.0938
     18 C          60.3237   85.5271    7.2360 C.3     1  UNL1        0.0233
     19 C          62.2191   86.1776    9.8280 C.3     1  UNL1        0.0937
     20 C          62.7078   84.2618   11.5135 C.3     1  UNL1        0.0018
     21 C          62.0515   85.5712   11.1897 C.3     1  UNL1        0.0215
@<TRIPOS>BOND
     1    20    21    1
     2    21    19    1
     3    19    14    1
     4    14    17    1
     5    17    18    1
     6    14    15   am
     7    15    16    2
     8    15    12    1
     9    12    13    2
    10    13     1    1
    11     1     2    2
    12     2     3    1
    13     3     4   ar
    14     4     5   ar
    15     5     6   ar
    16     6     7   ar
    17     7     8   ar
    18     7     9    1
    19     9    10    1
    20    10    11    1
    21     8     3   ar
    22    11     6    1
@<TRIPOS>MOLECULE
*****
 21 22 0 0 0
SMALL
GASTEIGER

@<TRIPOS>ATOM
      1 C          63.9273   90.2153   12.5402 C.2     1  UNL1        0.0001
      2 C          64.2666   89.2605   13.6462 C.2     1  UNL1        0.0001
      3 C          63.8968   87.8117   13.5262 C.ar    1  UNL1        0.0032
      4 C          63.1409   87.3277   12.3245 C.ar    1  UNL1        0.0033
      5 C          62.7712   85.8789   12.2044 C.ar    1  UNL1        0.0402
      6 C          63.1574   84.9142   13.2862 C.ar    1  UNL1        0.1764
      7 C          63.9133   85.3982   14.4879 C.ar    1  UNL1        0.1764
      8 C          64.2831   86.8470   14.6080 C.ar    1  UNL1        0.0402
      9 O          64.1560   84.2226   15.3874 O.3     1  UNL1       -0.4346
     10 C          63.5500   83.0120   14.7415 C.3     1  UNL1        0.4294
     11 O          62.9328   83.4394   13.4429 O.3     1  UNL1       -0.4346
     12 C          65.6669   92.1242   12.2579 C.2     1  UNL1        0.0579
     13 C          64.2970   91.6640   12.6603 C.2     1  UNL1        0.0047
     14 N          66.3919   94.3604   11.1517 N.am    1  UNL1       -0.2761
     15 C          66.0366   93.5730   12.3780 C.2     1  UNL1        0.2492
     16 O          66.0511   94.2343   13.7243 O.2     1  UNL1       -0.2699
     17 C          66.7617   95.8091   11.2718 C.3     1  UNL1        0.0938
     18 C          65.6882   96.8560   11.3154 C.3     1  UNL1        0.0233
     19 C          66.3775   93.6991    9.8054 C.3     1  UNL1        0.0937
     20 C          68.7106   92.6638    9.3213 C.3     1  UNL1        0.0018
     21 C          67.6301   93.6472    8.9818 C.3     1  UNL1        0.0215
@<TRIPOS>BOND
     1    20    21    1
     2    21    19    1
     3    19    14    1
     4    14    17    1
     5    17    18    1
     6    14    15   am
     7    15    16    2
     8    15    12    1
     9    12    13    2
    10    13     1    1
    11     1     2    2
    12     2     3    1
    13     3     4   ar
    14     4     5   ar
    15     5     6   ar
    16     6     7   ar
    17     7     8   ar
    18     7     9    1
    19     9    10    1
    20    10    11    1
    21     8     3   ar
    22    11     6    1
