@<TRIPOS>MOLECULE
*****
 24 27 0 0 0
SMALL
GASTEIGER

@<TRIPOS>ATOM
      1 C          62.8495   88.8573   11.8960 C.3     1  UNL1        0.1315
      2 C          63.2969   87.6578   12.6778 C.3     1  UNL1        0.1025
      3 N          64.0280   87.8381   13.9750 N.3     1  UNL1       -0.2579
      4 C          64.3118   89.2179   14.4905 C.3     1  UNL1        0.1051
      5 C          63.8645   90.4173   13.7088 C.3     1  UNL1        0.1594
      6 O          63.1333   90.2371   12.4115 O.3     1  UNL1       -0.3533
      7 C          62.1183   88.6771   10.5988 C.3     1  UNL1        0.0357
      8 C          61.2155   87.4951   10.4047 C.3     1  UNL1        0.0289
      9 C          61.7794   84.7925    6.8510 C.ar    1  UNL1       -0.0000
     10 C          62.9162   85.0302    7.8005 C.ar    1  UNL1       -0.0003
     11 C          62.7282   85.9310    8.9850 C.ar    1  UNL1       -0.0043
     12 C          61.4034   86.5942    9.2201 C.ar    1  UNL1       -0.0221
     13 C          60.2667   86.3566    8.2707 C.ar    1  UNL1       -0.0043
     14 C          60.4547   85.4558    7.0862 C.ar    1  UNL1       -0.0003
     15 C          64.4754   86.6386   14.7567 C.3     1  UNL1        0.1978
     16 C          63.9733   85.2738   14.3891 C.2     1  UNL1        0.3675
     17 N          62.7283   84.6217   14.9132 N.2     1  UNL1       -0.0337
     18 C          62.6135   83.2663   14.2809 C.2     1  UNL1        0.2318
     19 C          61.5916   82.1772   14.4200 C.2     1  UNL1        0.0498
     20 C          61.7438   80.9025   13.6442 C.2     1  UNL1       -0.0002
     21 C          62.9179   80.7169   12.7293 C.2     1  UNL1       -0.0172
     22 C          63.9398   81.8061   12.5902 C.3     1  UNL1        0.1037
     23 C          63.7876   83.0808   13.3660 C.2     1  UNL1        0.2175
     24 N          64.6279   84.3215   13.4329 N.2     1  UNL1       -0.0375
@<TRIPOS>BOND
     1     9    10   ar
     2    10    11   ar
     3    11    12   ar
     4    12     8    1
     5     8     7    1
     6     1     7    1
     7     1     2    1
     8     2     3    1
     9     3    15    1
    10    15    16    1
    11    16    17    2
    12    17    18    1
    13    18    19    2
    14    19    20    1
    15    20    21    2
    16    21    22    1
    17    22    23    1
    18    23    24    2
    19     3     4    1
    20     4     5    1
    21     5     6    1
    22    12    13   ar
    23    13    14   ar
    24    14     9   ar
    25     6     1    1
    26    24    16    1
    27    23    18    1
@<TRIPOS>MOLECULE
*****
 24 27 0 0 0
SMALL
GASTEIGER

@<TRIPOS>ATOM
      1 C          63.1235   90.4165   12.8642 C.3     1  UNL1        0.1315
      2 C          64.3122   91.3251   12.7569 C.3     1  UNL1        0.1025
      3 N          65.0691   91.7187   13.9907 N.3     1  UNL1       -0.2579
      4 C          64.6371   91.2038   15.3318 C.3     1  UNL1        0.1051
      5 C          63.4484   90.2953   15.4390 C.3     1  UNL1        0.1594
      6 O          62.6916   89.9016   14.2052 O.3     1  UNL1       -0.3533
      7 C          62.3667   90.0228   11.6304 C.3     1  UNL1        0.0357
      8 C          62.4328   88.6109   11.1285 C.3     1  UNL1        0.0289
      9 C          59.6887   87.2662    7.8252 C.ar    1  UNL1       -0.0000
     10 C          59.7657   88.7188    8.1917 C.ar    1  UNL1       -0.0003
     11 C          60.6804   89.1670    9.2928 C.ar    1  UNL1       -0.0043
     12 C          61.5181   88.1626   10.0274 C.ar    1  UNL1       -0.0221
     13 C          61.4411   86.7102    9.6610 C.ar    1  UNL1       -0.0043
     14 C          60.5264   86.2619    8.5598 C.ar    1  UNL1       -0.0003
     15 C          66.2578   92.6272   13.8835 C.3     1  UNL1        0.1978
     16 C          66.4646   93.4488   12.6457 C.2     1  UNL1        0.3675
     17 N          67.0742   92.9702   11.3615 N.2     1  UNL1       -0.0337
     18 C          67.0845   94.1189   10.3968 C.2     1  UNL1        0.2318
     19 C          67.5652   94.2361    8.9808 C.2     1  UNL1        0.0498
     20 C          67.4427   95.5419    8.2529 C.2     1  UNL1       -0.0002
     21 C          66.8395   96.7304    8.9410 C.2     1  UNL1       -0.0172
     22 C          66.3588   96.6132   10.3570 C.3     1  UNL1        0.1037
     23 C          66.4813   95.3074   11.0849 C.2     1  UNL1        0.2175
     24 N          66.0982   94.8933   12.4748 N.2     1  UNL1       -0.0375
@<TRIPOS>BOND
     1     9    10   ar
     2    10    11   ar
     3    11    12   ar
     4    12     8    1
     5     8     7    1
     6     1     7    1
     7     1     2    1
     8     2     3    1
     9     3    15    1
    10    15    16    1
    11    16    17    2
    12    17    18    1
    13    18    19    2
    14    19    20    1
    15    20    21    2
    16    21    22    1
    17    22    23    1
    18    23    24    2
    19     3     4    1
    20     4     5    1
    21     5     6    1
    22    12    13   ar
    23    13    14   ar
    24    14     9   ar
    25     6     1    1
    26    24    16    1
    27    23    18    1
@<TRIPOS>MOLECULE
*****
 24 27 0 0 0
SMALL
GASTEIGER

@<TRIPOS>ATOM
      1 C          63.2374   90.4406   12.5288 C.3     1  UNL1        0.1315
      2 C          62.5472   89.1780   12.1049 C.3     1  UNL1        0.1025
      3 N          62.1042   89.0068   10.6821 N.3     1  UNL1       -0.2579
      4 C          62.3513   90.0983    9.6832 C.3     1  UNL1        0.1051
      5 C          63.0414   91.3608   10.1071 C.3     1  UNL1        0.1594
      6 O          63.4844   91.5320   11.5299 O.3     1  UNL1       -0.3533
      7 C          63.6804   90.6118   13.9516 C.3     1  UNL1        0.0357
      8 C          64.6445   89.6366   14.5594 C.3     1  UNL1        0.0289
      9 C          63.1062   86.1011   16.8798 C.ar    1  UNL1       -0.0000
     10 C          62.7860   87.4940   17.3353 C.ar    1  UNL1       -0.0003
     11 C          63.2987   88.6725   16.5618 C.ar    1  UNL1       -0.0043
     12 C          64.1317   88.4581   15.3329 C.ar    1  UNL1       -0.0221
     13 C          64.4519   87.0652   14.8775 C.ar    1  UNL1       -0.0043
     14 C          63.9392   85.8868   15.6509 C.ar    1  UNL1       -0.0003
     15 C          61.4141   87.7443   10.2581 C.3     1  UNL1        0.1978
     16 C          61.9839   86.4118   10.6451 C.2     1  UNL1        0.3675
     17 N          61.8883   85.7714   11.9982 N.2     1  UNL1       -0.0337
     18 C          62.5946   84.4496   11.9363 C.2     1  UNL1        0.2318
     19 C          62.8220   83.3839   12.9671 C.2     1  UNL1        0.0498
     20 C          63.5815   82.1417   12.6066 C.2     1  UNL1       -0.0002
     21 C          64.1137   81.9652   11.2154 C.2     1  UNL1       -0.0172
     22 C          63.8864   83.0309   10.1846 C.3     1  UNL1        0.1037
     23 C          63.1268   84.2731   10.5451 C.2     1  UNL1        0.2175
     24 N          62.7493   85.4858    9.7471 N.2     1  UNL1       -0.0375
@<TRIPOS>BOND
     1     9    10   ar
     2    10    11   ar
     3    11    12   ar
     4    12     8    1
     5     8     7    1
     6     1     7    1
     7     1     2    1
     8     2     3    1
     9     3    15    1
    10    15    16    1
    11    16    17    2
    12    17    18    1
    13    18    19    2
    14    19    20    1
    15    20    21    2
    16    21    22    1
    17    22    23    1
    18    23    24    2
    19     3     4    1
    20     4     5    1
    21     5     6    1
    22    12    13   ar
    23    13    14   ar
    24    14     9   ar
    25     6     1    1
    26    24    16    1
    27    23    18    1
@<TRIPOS>MOLECULE
*****
 24 27 0 0 0
SMALL
GASTEIGER

@<TRIPOS>ATOM
      1 C          63.8901   87.0007   15.2809 C.3     1  UNL1        0.1315
      2 C          63.8604   87.5961   13.9044 C.3     1  UNL1        0.1025
      3 N          63.4773   89.0342   13.7174 N.3     1  UNL1       -0.2579
      4 C          63.1237   89.8770   14.9069 C.3     1  UNL1        0.1051
      5 C          63.1534   89.2816   16.2833 C.3     1  UNL1        0.1594
      6 O          63.5366   87.8435   16.4703 O.3     1  UNL1       -0.3533
      7 C          64.2733   85.5626   15.4680 C.3     1  UNL1        0.0357
      8 C          63.2234   84.4930   15.4094 C.3     1  UNL1        0.0289
      9 C          62.9024   81.8513   11.7806 C.ar    1  UNL1       -0.0000
     10 C          63.7639   83.0787   11.7410 C.ar    1  UNL1       -0.0003
     11 C          63.8709   83.9592   12.9506 C.ar    1  UNL1       -0.0043
     12 C          63.1164   83.6124   14.1998 C.ar    1  UNL1       -0.0221
     13 C          62.2549   82.3851   14.2394 C.ar    1  UNL1       -0.0043
     14 C          62.1480   81.5046   13.0298 C.ar    1  UNL1       -0.0003
     15 C          63.4476   89.6295   12.3409 C.3     1  UNL1        0.1978
     16 C          62.5437   89.0510   11.2929 C.2     1  UNL1        0.3675
     17 N          61.6639   89.8294   10.3601 N.2     1  UNL1       -0.0337
     18 C          60.9374   88.8520    9.4843 C.2     1  UNL1        0.2318
     19 C          59.9393   89.0423    8.3809 C.2     1  UNL1        0.0498
     20 C          59.3720   87.8501    7.6691 C.2     1  UNL1       -0.0002
     21 C          59.8028   86.4676    8.0606 C.2     1  UNL1       -0.0172
     22 C          60.8009   86.2774    9.1640 C.3     1  UNL1        0.1037
     23 C          61.3682   87.4696    9.8758 C.2     1  UNL1        0.2175
     24 N          62.3610   87.5926   10.9936 N.2     1  UNL1       -0.0375
@<TRIPOS>BOND
     1     9    10   ar
     2    10    11   ar
     3    11    12   ar
     4    12     8    1
     5     8     7    1
     6     1     7    1
     7     1     2    1
     8     2     3    1
     9     3    15    1
    10    15    16    1
    11    16    17    2
    12    17    18    1
    13    18    19    2
    14    19    20    1
    15    20    21    2
    16    21    22    1
    17    22    23    1
    18    23    24    2
    19     3     4    1
    20     4     5    1
    21     5     6    1
    22    12    13   ar
    23    13    14   ar
    24    14     9   ar
    25     6     1    1
    26    24    16    1
    27    23    18    1
@<TRIPOS>MOLECULE
*****
 24 27 0 0 0
SMALL
GASTEIGER

@<TRIPOS>ATOM
      1 C          63.5197   90.6676   11.6551 C.3     1  UNL1        0.1315
      2 C          63.4459   89.5416   12.6435 C.3     1  UNL1        0.1025
      3 N          64.2740   89.5855   13.8934 N.3     1  UNL1       -0.2579
      4 C          65.1759   90.7552   14.1549 C.3     1  UNL1        0.1051
      5 C          65.2496   91.8811   13.1665 C.3     1  UNL1        0.1594
      6 O          64.4215   91.8373   11.9166 O.3     1  UNL1       -0.3533
      7 C          62.6915   90.6237   10.4052 C.3     1  UNL1        0.0357
      8 C          61.3423   89.9687   10.4221 C.3     1  UNL1        0.0289
      9 C          60.6281   86.2257    8.0283 C.ar    1  UNL1       -0.0000
     10 C          61.8128   86.3158    8.9439 C.ar    1  UNL1       -0.0003
     11 C          62.0509   87.5634    9.7419 C.ar    1  UNL1       -0.0043
     12 C          61.1042   88.7210    9.6241 C.ar    1  UNL1       -0.0221
     13 C          59.9196   88.6310    8.7085 C.ar    1  UNL1       -0.0043
     14 C          59.6815   87.3833    7.9106 C.ar    1  UNL1       -0.0003
     15 C          64.2003   88.4596   14.8818 C.3     1  UNL1        0.1978
     16 C          63.8508   87.0764   14.4184 C.2     1  UNL1        0.3675
     17 N          63.5489   86.6695   13.0066 N.2     1  UNL1       -0.0337
     18 C          63.2533   85.1990   13.0011 C.2     1  UNL1        0.2318
     19 C          62.8910   84.2521   11.8956 C.2     1  UNL1        0.0498
     20 C          62.6478   82.8033   12.1986 C.2     1  UNL1       -0.0002
     21 C          62.7671   82.3014   13.6070 C.2     1  UNL1       -0.0172
     22 C          63.1294   83.2482   14.7126 C.3     1  UNL1        0.1037
     23 C          63.3725   84.6970   14.4096 C.2     1  UNL1        0.2175
     24 N          63.7417   85.8573   15.2855 N.2     1  UNL1       -0.0375
@<TRIPOS>BOND
     1     9    10   ar
     2    10    11   ar
     3    11    12   ar
     4    12     8    1
     5     8     7    1
     6     1     7    1
     7     1     2    1
     8     2     3    1
     9     3    15    1
    10    15    16    1
    11    16    17    2
    12    17    18    1
    13    18    19    2
    14    19    20    1
    15    20    21    2
    16    21    22    1
    17    22    23    1
    18    23    24    2
    19     3     4    1
    20     4     5    1
    21     5     6    1
    22    12    13   ar
    23    13    14   ar
    24    14     9   ar
    25     6     1    1
    26    24    16    1
    27    23    18    1
@<TRIPOS>MOLECULE
*****
 24 27 0 0 0
SMALL
GASTEIGER

@<TRIPOS>ATOM
      1 C          63.5611   89.7241   12.9577 C.3     1  UNL1        0.1315
      2 C          63.2363   88.4149   12.3014 C.3     1  UNL1        0.1025
      3 N          62.5032   88.3935   10.9929 N.3     1  UNL1       -0.2579
      4 C          62.0951   89.6812   10.3407 C.3     1  UNL1        0.1051
      5 C          62.4200   90.9902   10.9970 C.3     1  UNL1        0.1594
      6 O          63.1530   91.0117   12.3055 O.3     1  UNL1       -0.3533
      7 C          64.2942   89.7455   14.2663 C.3     1  UNL1        0.0357
      8 C          64.5089   91.0447   14.9844 C.3     1  UNL1        0.0289
      9 C          68.5959   92.9265   15.0572 C.ar    1  UNL1       -0.0000
     10 C          67.6357   93.1749   16.1826 C.ar    1  UNL1       -0.0003
     11 C          66.2734   92.5477   16.1583 C.ar    1  UNL1       -0.0043
     12 C          65.8713   91.6720   15.0087 C.ar    1  UNL1       -0.0221
     13 C          66.8315   91.4236   13.8834 C.ar    1  UNL1       -0.0043
     14 C          68.1938   92.0509   13.9076 C.ar    1  UNL1       -0.0003
     15 C          62.1784   87.0844   10.3366 C.3     1  UNL1        0.1978
     16 C          62.4018   85.7987   11.0763 C.2     1  UNL1        0.3675
     17 N          62.8900   84.5119   10.4800 N.2     1  UNL1       -0.0337
     18 C          62.9661   83.4920   11.5773 C.2     1  UNL1        0.2318
     19 C          63.3802   82.0503   11.5806 C.2     1  UNL1        0.0498
     20 C          63.3531   81.2652   12.8584 C.2     1  UNL1       -0.0002
     21 C          62.9118   81.9217   14.1328 C.2     1  UNL1       -0.0172
     22 C          62.4978   83.3634   14.1295 C.3     1  UNL1        0.1037
     23 C          62.5249   84.1485   12.8517 C.2     1  UNL1        0.2175
     24 N          62.1761   85.5742   12.5421 N.2     1  UNL1       -0.0375
@<TRIPOS>BOND
     1     9    10   ar
     2    10    11   ar
     3    11    12   ar
     4    12     8    1
     5     8     7    1
     6     1     7    1
     7     1     2    1
     8     2     3    1
     9     3    15    1
    10    15    16    1
    11    16    17    2
    12    17    18    1
    13    18    19    2
    14    19    20    1
    15    20    21    2
    16    21    22    1
    17    22    23    1
    18    23    24    2
    19     3     4    1
    20     4     5    1
    21     5     6    1
    22    12    13   ar
    23    13    14   ar
    24    14     9   ar
    25     6     1    1
    26    24    16    1
    27    23    18    1
@<TRIPOS>MOLECULE
*****
 24 27 0 0 0
SMALL
GASTEIGER

@<TRIPOS>ATOM
      1 C          61.5310   89.5169   10.4440 C.3     1  UNL1        0.1315
      2 C          62.0826   88.6717   11.5537 C.3     1  UNL1        0.1025
      3 N          63.1845   89.2010   12.4229 N.3     1  UNL1       -0.2579
      4 C          63.7349   90.5756   12.1824 C.3     1  UNL1        0.1051
      5 C          63.1833   91.4207   11.0727 C.3     1  UNL1        0.1594
      6 O          62.0814   90.8914   10.2035 O.3     1  UNL1       -0.3533
      7 C          60.4290   88.9876    9.5748 C.3     1  UNL1        0.0357
      8 C          60.1010   87.5239    9.5876 C.3     1  UNL1        0.0289
      9 C          62.4258   84.6743    6.9944 C.ar    1  UNL1       -0.0000
     10 C          63.0810   85.3100    8.1847 C.ar    1  UNL1       -0.0003
     11 C          62.3061   86.2598    9.0491 C.ar    1  UNL1       -0.0043
     12 C          60.8760   86.5741    8.7232 C.ar    1  UNL1       -0.0221
     13 C          60.2208   85.9384    7.5330 C.ar    1  UNL1       -0.0043
     14 C          60.9958   84.9886    6.6685 C.ar    1  UNL1       -0.0003
     15 C          63.7361   88.3559   13.5326 C.3     1  UNL1        0.1978
     16 C          63.5838   86.8644   13.4862 C.2     1  UNL1        0.3675
     17 N          63.9396   85.9071   14.5849 N.2     1  UNL1       -0.0337
     18 C          63.6247   84.5193   14.1106 C.2     1  UNL1        0.2318
     19 C          63.7681   83.1779   14.7663 C.2     1  UNL1        0.0498
     20 C          63.3609   81.9360   14.0302 C.2     1  UNL1       -0.0002
     21 C          62.8105   82.0355   12.6384 C.2     1  UNL1       -0.0172
     22 C          62.6671   83.3770   11.9827 C.3     1  UNL1        0.1037
     23 C          63.0742   84.6189   12.7188 C.2     1  UNL1        0.2175
     24 N          63.0490   86.0682   12.3329 N.2     1  UNL1       -0.0375
@<TRIPOS>BOND
     1     9    10   ar
     2    10    11   ar
     3    11    12   ar
     4    12     8    1
     5     8     7    1
     6     1     7    1
     7     1     2    1
     8     2     3    1
     9     3    15    1
    10    15    16    1
    11    16    17    2
    12    17    18    1
    13    18    19    2
    14    19    20    1
    15    20    21    2
    16    21    22    1
    17    22    23    1
    18    23    24    2
    19     3     4    1
    20     4     5    1
    21     5     6    1
    22    12    13   ar
    23    13    14   ar
    24    14     9   ar
    25     6     1    1
    26    24    16    1
    27    23    18    1
@<TRIPOS>MOLECULE
*****
 24 27 0 0 0
SMALL
GASTEIGER

@<TRIPOS>ATOM
      1 C          64.2937   87.9788   14.2416 C.3     1  UNL1        0.1315
      2 C          63.1840   87.9813   13.2323 C.3     1  UNL1        0.1025
      3 N          62.6799   89.2795   12.6751 N.3     1  UNL1       -0.2579
      4 C          63.2855   90.5753   13.1272 C.3     1  UNL1        0.1051
      5 C          64.3952   90.5727   14.1364 C.3     1  UNL1        0.1594
      6 O          64.8993   89.2745   14.6936 O.3     1  UNL1       -0.3533
      7 C          64.7978   86.6806   14.7987 C.3     1  UNL1        0.0357
      8 C          63.8297   85.6684   15.3355 C.3     1  UNL1        0.0289
      9 C          62.9621   81.9233   12.9964 C.ar    1  UNL1       -0.0000
     10 C          62.1861   82.2248   14.2443 C.ar    1  UNL1       -0.0003
     11 C          62.4754   83.4732   15.0240 C.ar    1  UNL1       -0.0043
     12 C          63.5405   84.4200   14.5558 C.ar    1  UNL1       -0.0221
     13 C          64.3163   84.1185   13.3080 C.ar    1  UNL1       -0.0043
     14 C          64.0271   82.8701   12.5283 C.ar    1  UNL1       -0.0003
     15 C          61.5702   89.2820   11.6659 C.3     1  UNL1        0.1978
     16 C          61.5480   88.2549   10.5730 C.2     1  UNL1        0.3675
     17 N          62.7114   87.4226   10.1214 N.2     1  UNL1       -0.0337
     18 C          62.2409   86.5330    9.0091 C.2     1  UNL1        0.2318
     19 C          62.9488   85.5023    8.1806 C.2     1  UNL1        0.0498
     20 C          62.2025   84.7540    7.1162 C.2     1  UNL1       -0.0002
     21 C          60.7484   85.0364    6.8802 C.2     1  UNL1       -0.0172
     22 C          60.0405   86.0671    7.7087 C.3     1  UNL1        0.1037
     23 C          60.7868   86.8154    8.7732 C.2     1  UNL1        0.2175
     24 N          60.3585   87.8796    9.7397 N.2     1  UNL1       -0.0375
@<TRIPOS>BOND
     1     9    10   ar
     2    10    11   ar
     3    11    12   ar
     4    12     8    1
     5     8     7    1
     6     1     7    1
     7     1     2    1
     8     2     3    1
     9     3    15    1
    10    15    16    1
    11    16    17    2
    12    17    18    1
    13    18    19    2
    14    19    20    1
    15    20    21    2
    16    21    22    1
    17    22    23    1
    18    23    24    2
    19     3     4    1
    20     4     5    1
    21     5     6    1
    22    12    13   ar
    23    13    14   ar
    24    14     9   ar
    25     6     1    1
    26    24    16    1
    27    23    18    1
@<TRIPOS>MOLECULE
*****
 24 27 0 0 0
SMALL
GASTEIGER

@<TRIPOS>ATOM
      1 C          60.2148   87.6143    8.4810 C.3     1  UNL1        0.1315
      2 C          60.2590   88.6981    9.5172 C.3     1  UNL1        0.1025
      3 N          60.8248   88.4132   10.8768 N.3     1  UNL1       -0.2579
      4 C          61.3464   87.0445   11.2003 C.3     1  UNL1        0.1051
      5 C          61.3021   85.9607   10.1642 C.3     1  UNL1        0.1594
      6 O          60.7363   86.2457    8.8046 O.3     1  UNL1       -0.3533
      7 C          59.6490   87.8993    7.1214 C.3     1  UNL1        0.0357
      8 C          58.6752   89.0249    6.9351 C.3     1  UNL1        0.0289
      9 C          59.5837   92.3257    4.0145 C.ar    1  UNL1       -0.0000
     10 C          60.6960   91.4805    4.5609 C.ar    1  UNL1       -0.0003
     11 C          60.3932   90.3802    5.5344 C.ar    1  UNL1       -0.0043
     12 C          58.9780   90.1252    5.9616 C.ar    1  UNL1       -0.0221
     13 C          57.8658   90.9703    5.4152 C.ar    1  UNL1       -0.0043
     14 C          58.1686   92.0706    4.4417 C.ar    1  UNL1       -0.0003
     15 C          60.8691   89.4969   11.9129 C.3     1  UNL1        0.1978
     16 C          62.1852   90.0852   12.3271 C.2     1  UNL1        0.3675
     17 N          62.9340   89.7703   13.5882 N.2     1  UNL1       -0.0337
     18 C          64.1952   90.5822   13.5935 C.2     1  UNL1        0.2318
     19 C          65.3197   90.6834   14.5811 C.2     1  UNL1        0.0498
     20 C          66.4748   91.6012   14.3109 C.2     1  UNL1       -0.0002
     21 C          66.5056   92.4179   13.0531 C.2     1  UNL1       -0.0172
     22 C          65.3812   92.3168   12.0655 C.3     1  UNL1        0.1037
     23 C          64.2260   91.3989   12.3357 C.2     1  UNL1        0.2175
     24 N          62.9838   91.0918   11.5531 N.2     1  UNL1       -0.0375
@<TRIPOS>BOND
     1     9    10   ar
     2    10    11   ar
     3    11    12   ar
     4    12     8    1
     5     8     7    1
     6     1     7    1
     7     1     2    1
     8     2     3    1
     9     3    15    1
    10    15    16    1
    11    16    17    2
    12    17    18    1
    13    18    19    2
    14    19    20    1
    15    20    21    2
    16    21    22    1
    17    22    23    1
    18    23    24    2
    19     3     4    1
    20     4     5    1
    21     5     6    1
    22    12    13   ar
    23    13    14   ar
    24    14     9   ar
    25     6     1    1
    26    24    16    1
    27    23    18    1
