@<TRIPOS>MOLECULE
*****
 30 34 0 0 0
SMALL
GASTEIGER

@<TRIPOS>ATOM
      1 C          59.9538   89.3032    7.6073 C.ar    1  UNL1        0.0652
      2 C          59.8082   87.8117    7.6694 C.ar    1  UNL1        0.0176
      3 C          60.4644   87.0395    8.7754 C.ar    1  UNL1        0.0044
      4 C          61.2661   87.7589    9.8193 C.ar    1  UNL1        0.0366
      5 C          61.4116   89.2505    9.7572 C.ar    1  UNL1       -0.0173
      6 C          60.7555   90.0227    8.6512 C.ar    1  UNL1        0.0134
      7 C          62.1604   90.1567   10.6888 C.3     1  UNL1        0.0312
      8 C          62.9486   89.7951   11.9128 C.3     1  UNL1        0.0327
      9 C          63.1827   88.4380   12.5073 C.ar    1  UNL1       -0.0010
     10 C          64.0329   88.5191   13.7404 C.ar    1  UNL1       -0.0014
     11 C          64.3868   87.2695   14.4909 C.ar    1  UNL1        0.0148
     12 C          63.8904   85.9388   14.0083 C.ar    1  UNL1        0.0634
     13 N          63.0402   85.8577   12.7753 N.ar    1  UNL1       -0.2464
     14 C          62.6864   87.1073   12.0247 C.ar    1  UNL1        0.1157
     15 C          61.8334   86.8051   10.8284 C.2     1  UNL1        0.2124
     16 O          61.5042   85.3577   10.6128 O.2     1  UNL1       -0.2850
     17 C          59.2156   92.4429    3.4265 C.3     1  UNL1        0.0538
     18 C          58.9584   91.5186    4.5796 C.ar    1  UNL1        0.0786
     19 C          59.9966   90.9416    5.4956 C.ar    1  UNL1        0.0962
     20 N          59.2977   90.0755    6.5013 N.ar    1  UNL1       -0.2868
     21 C          57.8275   90.1172    6.2068 C.ar    1  UNL1        0.1825
     22 N          57.6178   91.0091    5.0191 N.ar    1  UNL1       -0.2280
     23 C          64.2443   84.6892   14.7588 C.3     1  UNL1        0.0720
     24 C          63.6772   83.3692   14.3275 C.ar    1  UNL1       -0.0161
     25 C          62.3393   82.9244   14.8394 C.ar    1  UNL1       -0.0016
     26 C          61.7721   81.6044   14.4081 C.ar    1  UNL1        0.0293
     27 C          62.5430   80.7292   13.4648 C.ar    1  UNL1        0.1401
     28 F          61.9759   79.4093   13.0335 F       1  UNL1       -0.2042
     29 C          63.8810   81.1740   12.9529 C.ar    1  UNL1        0.0293
     30 C          64.4481   82.4940   13.3842 C.ar    1  UNL1       -0.0016
@<TRIPOS>BOND
     1    17    18    1
     2    18    19   ar
     3    19    20   ar
     4    20     1    1
     5     1     2   ar
     6     2     3   ar
     7     3     4   ar
     8     4     5   ar
     9     5     6   ar
    10     5     7    1
    11     7     8    1
    12     8     9    1
    13     9    10   ar
    14    10    11   ar
    15    11    12   ar
    16    12    23    1
    17    23    24    1
    18    24    25   ar
    19    25    26   ar
    20    26    27   ar
    21    27    28    1
    22    27    29   ar
    23    29    30   ar
    24    12    13   ar
    25    13    14   ar
    26    14    15    1
    27    15    16    2
    28    20    21   ar
    29    21    22   ar
    30    22    18   ar
    31     6     1   ar
    32    14     9   ar
    33    15     4    1
    34    30    24   ar
@<TRIPOS>MOLECULE
*****
 30 34 0 0 0
SMALL
GASTEIGER

@<TRIPOS>ATOM
      1 C          63.2168   82.6830   12.6096 C.ar    1  UNL1        0.0652
      2 C          63.9573   82.9612   13.8840 C.ar    1  UNL1        0.0176
      3 C          64.2077   84.3768   14.3122 C.ar    1  UNL1        0.0044
      4 C          63.7175   85.5142   13.4659 C.ar    1  UNL1        0.0366
      5 C          62.9769   85.2359   12.1915 C.ar    1  UNL1       -0.0173
      6 C          62.7266   83.8203   11.7634 C.ar    1  UNL1        0.0134
      7 C          62.4070   86.2148   11.2082 C.3     1  UNL1        0.0312
      8 C          62.4368   87.7138   11.2565 C.3     1  UNL1        0.0327
      9 C          63.0439   88.6040   12.3000 C.ar    1  UNL1       -0.0010
     10 C          62.8505   90.0530   11.9640 C.ar    1  UNL1       -0.0014
     11 C          63.3843   91.1133   12.8810 C.ar    1  UNL1        0.0148
     12 C          64.1117   90.7244   14.1340 C.ar    1  UNL1        0.0634
     13 N          64.3051   89.2754   14.4699 N.ar    1  UNL1       -0.2464
     14 C          63.7712   88.2152   13.5529 C.ar    1  UNL1        0.1157
     15 C          64.0709   86.8400   14.0718 C.2     1  UNL1        0.2124
     16 O          64.8237   86.7834   15.3680 O.2     1  UNL1       -0.2850
     17 C          62.8314   78.3237    9.6551 C.3     1  UNL1        0.0538
     18 C          62.7893   79.2636   10.8233 C.ar    1  UNL1        0.0786
     19 C          63.1560   80.7178   10.7986 C.ar    1  UNL1        0.0962
     20 N          62.9664   81.2673   12.1814 N.ar    1  UNL1       -0.2868
     21 C          62.4824   80.1527   13.0607 C.ar    1  UNL1        0.1825
     22 N          62.3729   78.9143   12.2214 N.ar    1  UNL1       -0.2280
     23 C          64.6455   91.7846   15.0510 C.3     1  UNL1        0.0720
     24 C          66.0990   92.1525   15.0064 C.ar    1  UNL1       -0.0161
     25 C          66.7256   92.8749   16.1620 C.ar    1  UNL1       -0.0016
     26 C          68.1792   93.2428   16.1174 C.ar    1  UNL1        0.0293
     27 C          69.0061   92.8882   14.9173 C.ar    1  UNL1        0.1401
     28 F          70.4595   93.2560   14.8727 F       1  UNL1       -0.2042
     29 C          68.3795   92.1657   13.7616 C.ar    1  UNL1        0.0293
     30 C          66.9259   91.7978   13.8062 C.ar    1  UNL1       -0.0016
@<TRIPOS>BOND
     1    17    18    1
     2    18    19   ar
     3    19    20   ar
     4    20     1    1
     5     1     2   ar
     6     2     3   ar
     7     3     4   ar
     8     4     5   ar
     9     5     6   ar
    10     5     7    1
    11     7     8    1
    12     8     9    1
    13     9    10   ar
    14    10    11   ar
    15    11    12   ar
    16    12    23    1
    17    23    24    1
    18    24    25   ar
    19    25    26   ar
    20    26    27   ar
    21    27    28    1
    22    27    29   ar
    23    29    30   ar
    24    12    13   ar
    25    13    14   ar
    26    14    15    1
    27    15    16    2
    28    20    21   ar
    29    21    22   ar
    30    22    18   ar
    31     6     1   ar
    32    14     9   ar
    33    15     4    1
    34    30    24   ar
@<TRIPOS>MOLECULE
*****
 30 34 0 0 0
SMALL
GASTEIGER

@<TRIPOS>ATOM
      1 C          62.6497   83.4655   13.6060 C.ar    1  UNL1        0.0652
      2 C          63.5238   84.0622   14.6689 C.ar    1  UNL1        0.0176
      3 C          63.9260   85.5049   14.5866 C.ar    1  UNL1        0.0044
      4 C          63.4540   86.3509   13.4413 C.ar    1  UNL1        0.0366
      5 C          62.5799   85.7541   12.3784 C.ar    1  UNL1       -0.0173
      6 C          62.1777   84.3114   12.4608 C.ar    1  UNL1        0.0134
      7 C          62.0034   86.4151   11.1616 C.3     1  UNL1        0.0312
      8 C          62.1586   87.8362   10.7072 C.3     1  UNL1        0.0327
      9 C          62.9287   88.9472   11.3573 C.ar    1  UNL1       -0.0010
     10 C          62.8232   90.2203   10.5711 C.ar    1  UNL1       -0.0014
     11 C          63.5228   91.4577   11.0500 C.ar    1  UNL1        0.0148
     12 C          64.3278   91.4220   12.3152 C.ar    1  UNL1        0.0634
     13 N          64.4333   90.1490   13.1014 N.ar    1  UNL1       -0.2464
     14 C          63.7338   88.9116   12.6224 C.ar    1  UNL1        0.1157
     15 C          63.9675   87.7560   13.5499 C.2     1  UNL1        0.2124
     16 O          64.8287   88.0438   14.7438 O.2     1  UNL1       -0.2850
     17 C          59.8005   79.0803   14.3365 C.3     1  UNL1        0.0538
     18 C          60.9378   80.0071   14.0241 C.ar    1  UNL1        0.0786
     19 C          60.8935   81.5055   14.0750 C.ar    1  UNL1        0.0962
     20 N          62.2474   82.0227   13.6884 N.ar    1  UNL1       -0.2868
     21 C          63.1285   80.8438   13.3985 C.ar    1  UNL1        0.1825
     22 N          62.3191   79.5981   13.6060 N.ar    1  UNL1       -0.2280
     23 C          65.0274   92.6594   12.7941 C.3     1  UNL1        0.0720
     24 C          66.1421   92.5522   13.7920 C.ar    1  UNL1       -0.0161
     25 C          67.5285   92.2085   13.3338 C.ar    1  UNL1       -0.0016
     26 C          68.6433   92.1012   14.3317 C.ar    1  UNL1        0.0293
     27 C          68.3718   92.3376   15.7878 C.ar    1  UNL1        0.1401
     28 F          69.4865   92.2303   16.7856 F       1  UNL1       -0.2042
     29 C          66.9854   92.6813   16.2461 C.ar    1  UNL1        0.0293
     30 C          65.8706   92.7886   15.2482 C.ar    1  UNL1       -0.0016
@<TRIPOS>BOND
     1    17    18    1
     2    18    19   ar
     3    19    20   ar
     4    20     1    1
     5     1     2   ar
     6     2     3   ar
     7     3     4   ar
     8     4     5   ar
     9     5     6   ar
    10     5     7    1
    11     7     8    1
    12     8     9    1
    13     9    10   ar
    14    10    11   ar
    15    11    12   ar
    16    12    23    1
    17    23    24    1
    18    24    25   ar
    19    25    26   ar
    20    26    27   ar
    21    27    28    1
    22    27    29   ar
    23    29    30   ar
    24    12    13   ar
    25    13    14   ar
    26    14    15    1
    27    15    16    2
    28    20    21   ar
    29    21    22   ar
    30    22    18   ar
    31     6     1   ar
    32    14     9   ar
    33    15     4    1
    34    30    24   ar
@<TRIPOS>MOLECULE
*****
 30 34 0 0 0
SMALL
GASTEIGER

@<TRIPOS>ATOM
      1 C          65.5767   91.6430   13.3013 C.ar    1  UNL1        0.0652
      2 C          65.2127   92.5397   12.1553 C.ar    1  UNL1        0.0176
      3 C          64.1858   92.0987   11.1549 C.ar    1  UNL1        0.0044
      4 C          63.5230   90.7610   11.3004 C.ar    1  UNL1        0.0366
      5 C          63.8870   89.8643   12.4464 C.ar    1  UNL1       -0.0173
      6 C          64.9139   90.3053   13.4469 C.ar    1  UNL1        0.0134
      7 C          63.3513   88.5023   12.7750 C.3     1  UNL1        0.0312
      8 C          62.3192   87.7007   12.0387 C.3     1  UNL1        0.0327
      9 C          61.5679   88.0630   10.7920 C.ar    1  UNL1       -0.0010
     10 C          60.6222   86.9719   10.3854 C.ar    1  UNL1       -0.0014
     11 C          59.7719   87.1343    9.1605 C.ar    1  UNL1        0.0148
     12 C          59.8672   88.3878    8.3421 C.ar    1  UNL1        0.0634
     13 N          60.8128   89.4788    8.7487 N.ar    1  UNL1       -0.2464
     14 C          61.6631   89.3164    9.9736 C.ar    1  UNL1        0.1157
     15 C          62.5333   90.5172   10.1999 C.2     1  UNL1        0.2124
     16 O          62.3954   91.6199    9.1925 O.2     1  UNL1       -0.2850
     17 C          68.9232   94.6427   16.0734 C.3     1  UNL1        0.0538
     18 C          68.1419   93.4628   15.5760 C.ar    1  UNL1        0.0786
     19 C          67.1393   93.4761   14.4604 C.ar    1  UNL1        0.0962
     20 N          66.6037   92.0840   14.3019 N.ar    1  UNL1       -0.2868
     21 C          67.2753   91.2103   15.3195 C.ar    1  UNL1        0.1825
     22 N          68.2259   92.0624   16.1070 N.ar    1  UNL1       -0.2280
     23 C          59.0168   88.5502    7.1171 C.3     1  UNL1        0.0720
     24 C          59.2105   89.7380    6.2218 C.ar    1  UNL1       -0.0161
     25 C          60.5776   90.0699    5.7013 C.ar    1  UNL1       -0.0016
     26 C          60.7712   91.2577    4.8058 C.ar    1  UNL1        0.0293
     27 C          59.5978   92.1135    4.4310 C.ar    1  UNL1        0.1401
     28 F          59.7915   93.3012    3.5356 F       1  UNL1       -0.2042
     29 C          58.2307   91.7816    4.9515 C.ar    1  UNL1        0.0293
     30 C          58.0370   90.5938    5.8469 C.ar    1  UNL1       -0.0016
@<TRIPOS>BOND
     1    17    18    1
     2    18    19   ar
     3    19    20   ar
     4    20     1    1
     5     1     2   ar
     6     2     3   ar
     7     3     4   ar
     8     4     5   ar
     9     5     6   ar
    10     5     7    1
    11     7     8    1
    12     8     9    1
    13     9    10   ar
    14    10    11   ar
    15    11    12   ar
    16    12    23    1
    17    23    24    1
    18    24    25   ar
    19    25    26   ar
    20    26    27   ar
    21    27    28    1
    22    27    29   ar
    23    29    30   ar
    24    12    13   ar
    25    13    14   ar
    26    14    15    1
    27    15    16    2
    28    20    21   ar
    29    21    22   ar
    30    22    18   ar
    31     6     1   ar
    32    14     9   ar
    33    15     4    1
    34    30    24   ar
