@<TRIPOS>MOLECULE
*****
 37 41 0 0 0
SMALL
GASTEIGER

@<TRIPOS>ATOM
      1 C          63.7735   89.4830   15.3052 C.2     1  UNL1        0.2320
      2 O          62.4189   89.3513   15.9357 O.2     1  UNL1       -0.2744
      3 N          64.5383   88.2555   14.9076 N.am    1  UNL1       -0.2639
      4 H          65.4274   88.3420   14.4937 H       1  UNL1        0.1567
      5 C          63.9485   86.8962   15.1404 C.ar    1  UNL1        0.1655
      6 N          63.7495   85.8317   14.1025 N.ar    1  UNL1       -0.2239
      7 C          63.1321   84.6403   14.7727 C.ar    1  UNL1        0.0913
      8 C          62.9495   84.9683   16.2249 C.ar    1  UNL1        0.0573
      9 S          63.4541   86.3625   16.4522 S.2     1  UNL1       -0.0508
     10 C          62.7623   83.3477   14.1075 C.ar    1  UNL1        0.0403
     11 C          61.9046   82.2670   14.6961 C.ar    1  UNL1        0.1021
     12 N          61.7975   81.1603   13.6892 N.ar    1  UNL1       -0.2269
     13 C          62.5889   81.5571   12.4783 C.ar    1  UNL1        0.1406
     14 N          62.8435   80.8620   11.1738 N.ar    1  UNL1       -0.3374
     15 C          63.6945   81.5188   10.1277 C.ar    1  UNL1        0.0735
     16 C          64.2908   82.8707   10.3861 C.ar    1  UNL1        0.0186
     17 C          64.0361   83.5658   11.6907 C.ar    1  UNL1        0.0046
     18 C          63.1852   82.9090   12.7368 C.ar    1  UNL1        0.0370
     19 H          62.4522   79.9747   11.0041 H       1  UNL1        0.1674
     20 C          64.3634   90.8424   15.0723 C.3     1  UNL1        0.1118
     21 C          63.8292   91.5014   11.1954 C.ar    1  UNL1        0.1382
     22 C          65.0533   92.3064   10.8734 C.ar    1  UNL1        0.0369
     23 C          66.0474   92.6234   11.9510 C.ar    1  UNL1        0.0028
     24 C          65.8174   92.1354   13.3507 C.ar    1  UNL1       -0.0036
     25 C          64.5934   91.3304   13.6727 C.ar    1  UNL1       -0.0101
     26 C          63.5992   91.0134   12.5951 C.ar    1  UNL1        0.0331
     27 O          62.8352   91.1844   10.1177 O.3     1  UNL1       -0.4754
     28 C          62.3532   89.7760    9.9327 C.3     1  UNL1        0.2068
     29 C          61.2106   89.2602   10.7564 C.3     1  UNL1        0.0646
     30 C          60.9462   87.7856   10.8318 C.3     1  UNL1        0.0760
     31 C          61.6908   84.3514    5.9684 C.3     1  UNL1        0.0897
     32 N          61.5046   85.2100    7.1843 N.3     1  UNL1       -0.2691
     33 C          62.6229   85.3640    8.1721 C.3     1  UNL1        0.0897
     34 C          62.4368   86.2225    9.3879 C.3     1  UNL1        0.0897
     35 N          61.1323   86.9271    9.6160 N.3     1  UNL1       -0.2702
     36 C          60.0140   86.7731    8.6283 C.3     1  UNL1        0.0897
     37 C          60.2002   85.9145    7.4124 C.3     1  UNL1        0.0897
@<TRIPOS>BOND
     1    31    32    1
     2    32    33    1
     3    33    34    1
     4    34    35    1
     5    35    30    1
     6    30    29    1
     7    29    28    1
     8    28    27    1
     9    27    21    1
    10    21    22   ar
    11    22    23   ar
    12    23    24   ar
    13    24    25   ar
    14    25    20    1
    15    20     1    1
    16     1     2    2
    17     1     3   am
    18     3     5    1
    19     5     6   ar
    20     6     7   ar
    21     7    10    1
    22    10    11   ar
    23    11    12   ar
    24    12    13   ar
    25    13    14   ar
    26    14    15   ar
    27    15    16   ar
    28    16    17   ar
    29    17    18   ar
    30     7     8   ar
    31     8     9   ar
    32    25    26   ar
    33    35    36    1
    34    36    37    1
    35    37    32    1
    36    26    21   ar
    37     9     5   ar
    38    18    10   ar
    39    18    13    1
    40     3     4    1
    41    14    19    1
@<TRIPOS>MOLECULE
*****
 37 41 0 0 0
SMALL
GASTEIGER

@<TRIPOS>ATOM
      1 C          64.1895   85.6617   15.4370 C.2     1  UNL1        0.2320
      2 O          65.5343   86.0034   14.8671 O.2     1  UNL1       -0.2744
      3 N          63.2531   86.7556   15.8571 N.am    1  UNL1       -0.2639
      4 H          62.3705   86.5313   16.2311 H       1  UNL1        0.1567
      5 C          63.6614   88.1911   15.7073 C.ar    1  UNL1        0.1655
      6 N          64.7598   88.7081   14.8263 N.ar    1  UNL1       -0.2239
      7 C          64.8203   90.1982   14.9867 C.ar    1  UNL1        0.0913
      8 C          63.7592   90.6023   15.9669 C.ar    1  UNL1        0.0573
      9 S          63.0429   89.3619   16.4122 S.2     1  UNL1       -0.0508
     10 C          65.7743   91.1221   14.2894 C.ar    1  UNL1        0.0403
     11 C          67.0921   91.5974   14.8256 C.ar    1  UNL1        0.1021
     12 N          67.7102   92.5020   13.8011 N.ar    1  UNL1       -0.2269
     13 C          66.7745   92.5857   12.6317 C.ar    1  UNL1        0.1406
     14 N          66.8573   93.3283   11.3311 N.ar    1  UNL1       -0.3374
     15 C          65.7437   93.2181   10.3323 C.ar    1  UNL1        0.0735
     16 C          64.5472   92.3653   10.6342 C.ar    1  UNL1        0.0186
     17 C          64.4644   91.6227   11.9348 C.ar    1  UNL1        0.0046
     18 C          65.5780   91.7329   12.9335 C.ar    1  UNL1        0.0370
     19 H          67.6426   93.8881   11.1330 H       1  UNL1        0.1674
     20 C          63.7812   84.2262   15.5868 C.3     1  UNL1        0.1118
     21 C          63.8726   82.8246   11.8749 C.ar    1  UNL1        0.1382
     22 C          62.8055   81.7725   11.9428 C.ar    1  UNL1        0.0369
     23 C          62.0637   81.5384   13.2254 C.ar    1  UNL1        0.0028
     24 C          62.3889   82.3562   14.4400 C.ar    1  UNL1       -0.0036
     25 C          63.4560   83.4083   14.3722 C.ar    1  UNL1       -0.0101
     26 C          64.1978   83.6425   13.0896 C.ar    1  UNL1        0.0331
     27 O          64.6144   83.0587   10.5924 O.3     1  UNL1       -0.4754
     28 C          63.9805   83.8616    9.4952 C.3     1  UNL1        0.2068
     29 C          62.8265   84.7697    9.8011 C.3     1  UNL1        0.0646
     30 C          62.5759   85.9775    8.9477 C.3     1  UNL1        0.0760
     31 C          59.6072   90.6796   11.2010 C.3     1  UNL1        0.0897
     32 N          60.3494   89.5040   10.6377 N.3     1  UNL1       -0.2691
     33 C          59.9580   88.9388    9.3045 C.3     1  UNL1        0.0897
     34 C          60.7002   87.7633    8.7412 C.3     1  UNL1        0.0897
     35 N          61.8337   87.1530    9.5110 N.3     1  UNL1       -0.2702
     36 C          62.2251   87.7182   10.8442 C.3     1  UNL1        0.0897
     37 C          61.4829   88.8937   11.4075 C.3     1  UNL1        0.0897
@<TRIPOS>BOND
     1    31    32    1
     2    32    33    1
     3    33    34    1
     4    34    35    1
     5    35    30    1
     6    30    29    1
     7    29    28    1
     8    28    27    1
     9    27    21    1
    10    21    22   ar
    11    22    23   ar
    12    23    24   ar
    13    24    25   ar
    14    25    20    1
    15    20     1    1
    16     1     2    2
    17     1     3   am
    18     3     5    1
    19     5     6   ar
    20     6     7   ar
    21     7    10    1
    22    10    11   ar
    23    11    12   ar
    24    12    13   ar
    25    13    14   ar
    26    14    15   ar
    27    15    16   ar
    28    16    17   ar
    29    17    18   ar
    30     7     8   ar
    31     8     9   ar
    32    25    26   ar
    33    35    36    1
    34    36    37    1
    35    37    32    1
    36    26    21   ar
    37     9     5   ar
    38    18    10   ar
    39    18    13    1
    40     3     4    1
    41    14    19    1
@<TRIPOS>MOLECULE
*****
 37 41 0 0 0
SMALL
GASTEIGER

@<TRIPOS>ATOM
      1 C          62.0370   87.0910   10.4858 C.2     1  UNL1        0.2320
      2 O          62.3777   87.4763    9.0768 O.2     1  UNL1       -0.2744
      3 N          62.2367   88.0739   11.6012 N.am    1  UNL1       -0.2639
      4 H          62.0131   87.8210   12.5260 H       1  UNL1        0.1567
      5 C          62.7772   89.4418   11.3076 C.ar    1  UNL1        0.1655
      6 N          63.8503   90.1504   12.0799 N.ar    1  UNL1       -0.2239
      7 C          64.0759   91.4880   11.4398 C.ar    1  UNL1        0.0913
      8 C          63.1423   91.6062   10.2717 C.ar    1  UNL1        0.0573
      9 S          62.3397   90.3417   10.1900 S.2     1  UNL1       -0.0508
     10 C          65.0620   92.5253   11.8888 C.ar    1  UNL1        0.0403
     11 C          65.5463   93.6907   11.0781 C.ar    1  UNL1        0.1021
     12 N          66.5205   94.4650   11.9156 N.ar    1  UNL1       -0.2269
     13 C          66.6383   93.7781   13.2439 C.ar    1  UNL1        0.1406
     14 N          67.4499   94.0894   14.4663 N.ar    1  UNL1       -0.3374
     15 C          67.3600   93.2019   15.6722 C.ar    1  UNL1        0.0735
     16 C          66.4586   92.0031   15.6556 C.ar    1  UNL1        0.0186
     17 C          65.6470   91.6918   14.4332 C.ar    1  UNL1        0.0046
     18 C          65.7369   92.5793   13.2273 C.ar    1  UNL1        0.0370
     19 H          68.0415   94.8762   14.4772 H       1  UNL1        0.1674
     20 C          61.4964   85.7230   10.7795 C.3     1  UNL1        0.1118
     21 C          63.3982   82.5850   12.2917 C.ar    1  UNL1        0.1382
     22 C          64.3044   82.2262   11.1515 C.ar    1  UNL1        0.0369
     23 C          64.2745   83.0330    9.8872 C.ar    1  UNL1        0.0028
     24 C          63.3386   84.1985    9.7632 C.ar    1  UNL1       -0.0036
     25 C          62.4324   84.5574   10.9034 C.ar    1  UNL1       -0.0101
     26 C          62.4622   83.7507   12.1677 C.ar    1  UNL1        0.0331
     27 O          63.4281   81.7783   13.5559 O.3     1  UNL1       -0.4754
     28 C          62.4250   82.0442   14.6391 C.3     1  UNL1        0.2068
     29 C          62.5866   83.2367   15.5345 C.3     1  UNL1        0.0646
     30 C          63.7848   84.1273   15.3886 C.3     1  UNL1        0.0760
     31 C          63.3006   90.0092   16.4697 C.3     1  UNL1        0.0897
     32 N          63.4217   88.5387   16.1995 N.3     1  UNL1       -0.2691
     33 C          64.1358   88.0582   14.9710 C.3     1  UNL1        0.0897
     34 C          64.2569   86.5878   14.7007 C.3     1  UNL1        0.0897
     35 N          63.6638   85.5977   15.6589 N.3     1  UNL1       -0.2702
     36 C          62.9496   86.0782   16.8873 C.3     1  UNL1        0.0897
     37 C          62.8286   87.5487   17.1576 C.3     1  UNL1        0.0897
@<TRIPOS>BOND
     1    31    32    1
     2    32    33    1
     3    33    34    1
     4    34    35    1
     5    35    30    1
     6    30    29    1
     7    29    28    1
     8    28    27    1
     9    27    21    1
    10    21    22   ar
    11    22    23   ar
    12    23    24   ar
    13    24    25   ar
    14    25    20    1
    15    20     1    1
    16     1     2    2
    17     1     3   am
    18     3     5    1
    19     5     6   ar
    20     6     7   ar
    21     7    10    1
    22    10    11   ar
    23    11    12   ar
    24    12    13   ar
    25    13    14   ar
    26    14    15   ar
    27    15    16   ar
    28    16    17   ar
    29    17    18   ar
    30     7     8   ar
    31     8     9   ar
    32    25    26   ar
    33    35    36    1
    34    36    37    1
    35    37    32    1
    36    26    21   ar
    37     9     5   ar
    38    18    10   ar
    39    18    13    1
    40     3     4    1
    41    14    19    1
@<TRIPOS>MOLECULE
*****
 37 41 0 0 0
SMALL
GASTEIGER

@<TRIPOS>ATOM
      1 C          64.3054   85.0557   15.3317 C.2     1  UNL1        0.2320
      2 O          65.6350   85.6172   14.9232 O.2     1  UNL1       -0.2744
      3 N          63.1915   85.9787   15.7284 N.am    1  UNL1       -0.2639
      4 H          62.3188   85.6102   15.9965 H       1  UNL1        0.1567
      5 C          63.4071   87.4630   15.7165 C.ar    1  UNL1        0.1655
      6 N          64.0306   88.2545   14.6053 N.ar    1  UNL1       -0.2239
      7 C          64.0460   89.6971   15.0157 C.ar    1  UNL1        0.0913
      8 C          63.4320   89.7973   16.3806 C.ar    1  UNL1        0.0573
      9 S          63.0371   88.4165   16.8137 S.2     1  UNL1       -0.0508
     10 C          64.5814   90.8392   14.2038 C.ar    1  UNL1        0.0403
     11 C          64.1342   91.2271   12.8256 C.ar    1  UNL1        0.1021
     12 N          64.9344   92.4214   12.3977 N.ar    1  UNL1       -0.2269
     13 C          65.8762   92.7717   13.5114 C.ar    1  UNL1        0.1406
     14 N          66.9042   93.8547   13.6533 N.ar    1  UNL1       -0.3374
     15 C          67.7141   93.9598   14.9115 C.ar    1  UNL1        0.0735
     16 C          67.4959   92.9819   16.0278 C.ar    1  UNL1        0.0186
     17 C          66.4679   91.8989   15.8859 C.ar    1  UNL1        0.0046
     18 C          65.6580   91.7937   14.6277 C.ar    1  UNL1        0.0370
     19 H          67.0474   94.4965   12.9207 H       1  UNL1        0.1674
     20 C          64.0897   83.5714   15.3436 C.3     1  UNL1        0.1118
     21 C          63.9746   82.5229   11.5177 C.ar    1  UNL1        0.1382
     22 C          62.9437   81.4338   11.5532 C.ar    1  UNL1        0.0369
     23 C          62.2948   81.0573   12.8521 C.ar    1  UNL1        0.0028
     24 C          62.6768   81.7697   14.1156 C.ar    1  UNL1       -0.0036
     25 C          63.7077   82.8588   14.0802 C.ar    1  UNL1       -0.0101
     26 C          64.3566   83.2354   12.7812 C.ar    1  UNL1        0.0331
     27 O          64.6234   82.8994   10.2188 O.3     1  UNL1       -0.4754
     28 C          63.9052   83.7953    9.2536 C.3     1  UNL1        0.2068
     29 C          62.9155   84.8025    9.7596 C.3     1  UNL1        0.0646
     30 C          62.4967   85.9472    8.8853 C.3     1  UNL1        0.0760
     31 C          59.6275   90.6478   11.2669 C.3     1  UNL1        0.0897
     32 N          60.3448   89.4726   10.6714 N.3     1  UNL1       -0.2691
     33 C          61.5380   88.8902   11.3692 C.3     1  UNL1        0.0897
     34 C          62.2553   87.7150   10.7738 C.3     1  UNL1        0.0897
     35 N          61.7794   87.1223    9.4807 N.3     1  UNL1       -0.2702
     36 C          60.5862   87.7048    8.7829 C.3     1  UNL1        0.0897
     37 C          59.8689   88.8800    9.3784 C.3     1  UNL1        0.0897
@<TRIPOS>BOND
     1    31    32    1
     2    32    33    1
     3    33    34    1
     4    34    35    1
     5    35    30    1
     6    30    29    1
     7    29    28    1
     8    28    27    1
     9    27    21    1
    10    21    22   ar
    11    22    23   ar
    12    23    24   ar
    13    24    25   ar
    14    25    20    1
    15    20     1    1
    16     1     2    2
    17     1     3   am
    18     3     5    1
    19     5     6   ar
    20     6     7   ar
    21     7    10    1
    22    10    11   ar
    23    11    12   ar
    24    12    13   ar
    25    13    14   ar
    26    14    15   ar
    27    15    16   ar
    28    16    17   ar
    29    17    18   ar
    30     7     8   ar
    31     8     9   ar
    32    25    26   ar
    33    35    36    1
    34    36    37    1
    35    37    32    1
    36    26    21   ar
    37     9     5   ar
    38    18    10   ar
    39    18    13    1
    40     3     4    1
    41    14    19    1
@<TRIPOS>MOLECULE
*****
 37 41 0 0 0
SMALL
GASTEIGER

@<TRIPOS>ATOM
      1 C          62.9506   84.7809   15.3160 C.2     1  UNL1        0.2320
      2 O          62.4222   85.3584   14.0365 O.2     1  UNL1       -0.2744
      3 N          63.5063   85.6867   16.3746 N.am    1  UNL1       -0.2639
      4 H          63.8532   85.3077   17.2144 H       1  UNL1        0.1567
      5 C          63.5336   87.1700   16.1536 C.ar    1  UNL1        0.1655
      6 N          64.1619   87.8767   14.9892 N.ar    1  UNL1       -0.2239
      7 C          63.9540   89.3506   15.1742 C.ar    1  UNL1        0.0913
      8 C          63.1972   89.5550   16.4531 C.ar    1  UNL1        0.0573
      9 S          62.9374   88.2074   17.0584 S.2     1  UNL1       -0.0508
     10 C          64.4209   90.4306   14.2438 C.ar    1  UNL1        0.0403
     11 C          65.4242   91.4983   14.5652 C.ar    1  UNL1        0.1021
     12 N          65.5898   92.3600   13.3487 N.ar    1  UNL1       -0.2269
     13 C          64.6889   91.8248   12.2754 C.ar    1  UNL1        0.1406
     14 N          64.4330   92.2693   10.8658 N.ar    1  UNL1       -0.3374
     15 C          63.4547   91.5213   10.0095 C.ar    1  UNL1        0.0735
     16 C          62.7323   90.3288   10.5627 C.ar    1  UNL1        0.0186
     17 C          62.9882   89.8844   11.9723 C.ar    1  UNL1        0.0046
     18 C          63.9665   90.6324   12.8286 C.ar    1  UNL1        0.0370
     19 H          64.9072   93.0520   10.5027 H       1  UNL1        0.1674
     20 C          62.9233   83.2975   15.5370 C.3     1  UNL1        0.1118
     21 C          63.6599   81.7085   11.9756 C.ar    1  UNL1        0.1382
     22 C          62.7716   80.5005   12.0150 C.ar    1  UNL1        0.0369
     23 C          61.9338   80.2248   13.2283 C.ar    1  UNL1        0.0028
     24 C          61.9843   81.1571   14.4023 C.ar    1  UNL1       -0.0036
     25 C          62.8727   82.3652   14.3630 C.ar    1  UNL1       -0.0101
     26 C          63.7105   82.6409   13.1497 C.ar    1  UNL1        0.0331
     27 O          64.4977   81.9842   10.7623 O.3     1  UNL1       -0.4754
     28 C          64.6284   83.3857   10.2438 C.3     1  UNL1        0.2068
     29 C          63.4622   84.0489    9.5731 C.3     1  UNL1        0.0646
     30 C          62.5924   84.9964   10.3450 C.3     1  UNL1        0.0760
     31 C          58.8562   88.6838    7.4390 C.3     1  UNL1        0.0897
     32 N          59.7903   87.7619    8.1655 N.3     1  UNL1       -0.2691
     33 C          60.1119   88.0059    9.6101 C.3     1  UNL1        0.0897
     34 C          61.0459   87.0841   10.3366 C.3     1  UNL1        0.0897
     35 N          61.6584   85.9182    9.6185 N.3     1  UNL1       -0.2702
     36 C          61.3368   85.6742    8.1738 C.3     1  UNL1        0.0897
     37 C          60.4027   86.5961    7.4474 C.3     1  UNL1        0.0897
@<TRIPOS>BOND
     1    31    32    1
     2    32    33    1
     3    33    34    1
     4    34    35    1
     5    35    30    1
     6    30    29    1
     7    29    28    1
     8    28    27    1
     9    27    21    1
    10    21    22   ar
    11    22    23   ar
    12    23    24   ar
    13    24    25   ar
    14    25    20    1
    15    20     1    1
    16     1     2    2
    17     1     3   am
    18     3     5    1
    19     5     6   ar
    20     6     7   ar
    21     7    10    1
    22    10    11   ar
    23    11    12   ar
    24    12    13   ar
    25    13    14   ar
    26    14    15   ar
    27    15    16   ar
    28    16    17   ar
    29    17    18   ar
    30     7     8   ar
    31     8     9   ar
    32    25    26   ar
    33    35    36    1
    34    36    37    1
    35    37    32    1
    36    26    21   ar
    37     9     5   ar
    38    18    10   ar
    39    18    13    1
    40     3     4    1
    41    14    19    1
@<TRIPOS>MOLECULE
*****
 37 41 0 0 0
SMALL
GASTEIGER

@<TRIPOS>ATOM
      1 C          60.9527   88.4924   11.0772 C.2     1  UNL1        0.2320
      2 O          60.2938   89.2998   12.1560 O.2     1  UNL1       -0.2744
      3 N          62.3649   88.7940   10.6713 N.am    1  UNL1       -0.2639
      4 H          62.7974   88.2640    9.9633 H       1  UNL1        0.1567
      5 C          63.1182   89.9028   11.3443 C.ar    1  UNL1        0.1655
      6 N          63.5497   89.9307   12.7806 N.ar    1  UNL1       -0.2239
      7 C          64.2704   91.2236   13.0231 C.ar    1  UNL1        0.0913
      8 C          64.2843   91.9949   11.7367 C.ar    1  UNL1        0.0573
      9 S          63.5722   91.1786   10.6991 S.2     1  UNL1       -0.0508
     10 C          64.8717   91.6674   14.3237 C.ar    1  UNL1        0.0403
     11 C          64.1354   91.8549   15.6170 C.ar    1  UNL1        0.1021
     12 N          65.1235   92.3050   16.6519 N.ar    1  UNL1       -0.2269
     13 C          66.4705   92.3958   15.9982 C.ar    1  UNL1        0.1406
     14 N          67.8186   92.7863   16.5273 N.ar    1  UNL1       -0.3374
     15 C          69.0111   92.7829   15.6174 C.ar    1  UNL1        0.0735
     16 C          68.8555   92.3888   14.1785 C.ar    1  UNL1        0.0186
     17 C          67.5074   91.9983   13.6494 C.ar    1  UNL1        0.0046
     18 C          66.3149   92.0017   14.5592 C.ar    1  UNL1        0.0370
     19 H          67.9208   93.0450   17.4717 H       1  UNL1        0.1674
     20 C          60.1995   87.3835   10.4042 C.3     1  UNL1        0.1118
     21 C          62.7981   84.8358    8.8209 C.ar    1  UNL1        0.1382
     22 C          62.2808   84.7396    7.4162 C.ar    1  UNL1        0.0369
     23 C          61.0697   85.5246    7.0075 C.ar    1  UNL1        0.0028
     24 C          60.3759   86.4059    8.0035 C.ar    1  UNL1       -0.0036
     25 C          60.8932   86.5022    9.4082 C.ar    1  UNL1       -0.0101
     26 C          62.1043   85.7171    9.8170 C.ar    1  UNL1        0.0331
     27 O          64.0091   84.0507    9.2296 O.3     1  UNL1       -0.4754
     28 C          63.8878   82.9669   10.2595 C.3     1  UNL1        0.2068
     29 C          64.6500   83.0676   11.5475 C.3     1  UNL1        0.0646
     30 C          64.0285   82.5891   12.8261 C.3     1  UNL1        0.0760
     31 C          62.8506   86.4878   17.2321 C.3     1  UNL1        0.0897
     32 N          63.1451   85.5131   16.1306 N.3     1  UNL1       -0.2691
     33 C          62.1815   84.4024   15.8345 C.3     1  UNL1        0.0897
     34 C          62.4759   83.4277   14.7330 C.3     1  UNL1        0.0897
     35 N          63.7340   83.5638   13.9276 N.3     1  UNL1       -0.2702
     36 C          64.6976   84.6745   14.2236 C.3     1  UNL1        0.0897
     37 C          64.4031   85.6492   15.3252 C.3     1  UNL1        0.0897
@<TRIPOS>BOND
     1    31    32    1
     2    32    33    1
     3    33    34    1
     4    34    35    1
     5    35    30    1
     6    30    29    1
     7    29    28    1
     8    28    27    1
     9    27    21    1
    10    21    22   ar
    11    22    23   ar
    12    23    24   ar
    13    24    25   ar
    14    25    20    1
    15    20     1    1
    16     1     2    2
    17     1     3   am
    18     3     5    1
    19     5     6   ar
    20     6     7   ar
    21     7    10    1
    22    10    11   ar
    23    11    12   ar
    24    12    13   ar
    25    13    14   ar
    26    14    15   ar
    27    15    16   ar
    28    16    17   ar
    29    17    18   ar
    30     7     8   ar
    31     8     9   ar
    32    25    26   ar
    33    35    36    1
    34    36    37    1
    35    37    32    1
    36    26    21   ar
    37     9     5   ar
    38    18    10   ar
    39    18    13    1
    40     3     4    1
    41    14    19    1
@<TRIPOS>MOLECULE
*****
 37 41 0 0 0
SMALL
GASTEIGER

@<TRIPOS>ATOM
      1 C          61.1985   88.6597   11.3521 C.2     1  UNL1        0.2320
      2 O          60.7868   90.0813   11.5960 O.2     1  UNL1       -0.2744
      3 N          62.4922   88.1470   11.9119 N.am    1  UNL1       -0.2639
      4 H          62.7625   87.2140   11.7518 H       1  UNL1        0.1567
      5 C          63.3742   89.0558   12.7157 C.ar    1  UNL1        0.1655
      6 N          63.8874   90.3969   12.2818 N.ar    1  UNL1       -0.2239
      7 C          64.7282   90.9531   13.3924 C.ar    1  UNL1        0.0913
      8 C          64.7347   89.9558   14.5129 C.ar    1  UNL1        0.0573
      9 S          63.8979   88.7833   14.0947 S.2     1  UNL1       -0.0508
     10 C          65.4379   92.2745   13.3841 C.ar    1  UNL1        0.0403
     11 C          66.0187   92.9709   14.5790 C.ar    1  UNL1        0.1021
     12 N          66.6312   94.2583   14.1128 N.ar    1  UNL1       -0.2269
     13 C          66.4289   94.3577   12.6298 C.ar    1  UNL1        0.1406
     14 N          66.8210   95.4062   11.6314 N.ar    1  UNL1       -0.3374
     15 C          66.4755   95.2286   10.1826 C.ar    1  UNL1        0.0735
     16 C          65.7380   94.0025    9.7322 C.ar    1  UNL1        0.0186
     17 C          65.3459   92.9540   10.7307 C.ar    1  UNL1        0.0046
     18 C          65.6914   93.1316   12.1795 C.ar    1  UNL1        0.0370
     19 H          67.3050   96.2109   11.9270 H       1  UNL1        0.1674
     20 C          60.3166   87.7509   10.5483 C.3     1  UNL1        0.1118
     21 C          62.7657   85.0604    8.9629 C.ar    1  UNL1        0.1382
     22 C          62.1376   84.8648    7.6148 C.ar    1  UNL1        0.0369
     23 C          60.9025   85.6313    7.2446 C.ar    1  UNL1        0.0028
     24 C          60.2955   86.5933    8.2223 C.ar    1  UNL1       -0.0036
     25 C          60.9235   86.7889    9.5704 C.ar    1  UNL1       -0.0101
     26 C          62.1587   86.0224    9.9407 C.ar    1  UNL1        0.0331
     27 O          64.0008   84.2939    9.3331 O.3     1  UNL1       -0.4754
     28 C          63.8816   82.9696   10.0274 C.3     1  UNL1        0.2068
     29 C          64.5694   82.7473   11.3418 C.3     1  UNL1        0.0646
     30 C          63.7697   82.3626   12.5511 C.3     1  UNL1        0.0760
     31 C          63.0573   86.2736   17.0453 C.3     1  UNL1        0.0897
     32 N          63.2354   85.2958   15.9217 N.3     1  UNL1       -0.2691
     33 C          64.4602   85.3605   15.0583 C.3     1  UNL1        0.0897
     34 C          64.6384   84.3828   13.9347 C.3     1  UNL1        0.0897
     35 N          63.5916   83.3403   13.6746 N.3     1  UNL1       -0.2702
     36 C          62.3667   83.2756   14.5380 C.3     1  UNL1        0.0897
     37 C          62.1887   84.2534   15.6616 C.3     1  UNL1        0.0897
@<TRIPOS>BOND
     1    31    32    1
     2    32    33    1
     3    33    34    1
     4    34    35    1
     5    35    30    1
     6    30    29    1
     7    29    28    1
     8    28    27    1
     9    27    21    1
    10    21    22   ar
    11    22    23   ar
    12    23    24   ar
    13    24    25   ar
    14    25    20    1
    15    20     1    1
    16     1     2    2
    17     1     3   am
    18     3     5    1
    19     5     6   ar
    20     6     7   ar
    21     7    10    1
    22    10    11   ar
    23    11    12   ar
    24    12    13   ar
    25    13    14   ar
    26    14    15   ar
    27    15    16   ar
    28    16    17   ar
    29    17    18   ar
    30     7     8   ar
    31     8     9   ar
    32    25    26   ar
    33    35    36    1
    34    36    37    1
    35    37    32    1
    36    26    21   ar
    37     9     5   ar
    38    18    10   ar
    39    18    13    1
    40     3     4    1
    41    14    19    1
@<TRIPOS>MOLECULE
*****
 37 41 0 0 0
SMALL
GASTEIGER

@<TRIPOS>ATOM
      1 C          62.3739   88.9163   11.4038 C.2     1  UNL1        0.2320
      2 O          62.5376   89.8857   10.2709 O.2     1  UNL1       -0.2744
      3 N          63.0768   89.1594   12.7064 N.am    1  UNL1       -0.2639
      4 H          62.9694   88.5231   13.4499 H       1  UNL1        0.1567
      5 C          63.9432   90.3719   12.8762 C.ar    1  UNL1        0.1655
      6 N          64.3940   91.2938   11.7822 N.ar    1  UNL1       -0.2239
      7 C          65.2404   92.3671   12.3997 C.ar    1  UNL1        0.0913
      8 C          65.3128   92.1087   13.8755 C.ar    1  UNL1        0.0573
      9 S          64.5111   90.8757   14.1700 S.2     1  UNL1       -0.0508
     10 C          65.8989   93.5001   11.6696 C.ar    1  UNL1        0.0403
     11 C          65.7091   94.9607   11.9535 C.ar    1  UNL1        0.1021
     12 N          66.5557   95.7345   10.9869 N.ar    1  UNL1       -0.2269
     13 C          67.2687   94.7522   10.1055 C.ar    1  UNL1        0.1406
     14 N          68.2350   94.9368    8.9733 N.ar    1  UNL1       -0.3374
     15 C          68.7955   93.7404    8.2631 C.ar    1  UNL1        0.0735
     16 C          68.3896   92.3594    8.6850 C.ar    1  UNL1        0.0186
     17 C          67.4232   92.1748    9.8173 C.ar    1  UNL1        0.0046
     18 C          66.8627   93.3712   10.5275 C.ar    1  UNL1        0.0370
     19 H          68.5015   95.8432    8.6964 H       1  UNL1        0.1674
     20 C          61.5075   87.7037   11.2340 C.3     1  UNL1        0.1118
     21 C          62.7833   83.9663   10.8405 C.ar    1  UNL1        0.1382
     22 C          63.2080   83.9617    9.4019 C.ar    1  UNL1        0.0369
     23 C          63.0659   85.2044    8.5740 C.ar    1  UNL1        0.0028
     24 C          62.4991   86.4517    9.1846 C.ar    1  UNL1       -0.0036
     25 C          62.0743   86.4564   10.6233 C.ar    1  UNL1       -0.0101
     26 C          62.2164   85.2136   11.4513 C.ar    1  UNL1        0.0331
     27 O          62.9254   82.7236   11.6685 O.3     1  UNL1       -0.4754
     28 C          64.2417   82.3954   12.3086 C.3     1  UNL1        0.2068
     29 C          64.6029   82.9999   13.6330 C.3     1  UNL1        0.0646
     30 C          63.5303   83.3019   14.6371 C.3     1  UNL1        0.0760
     31 C          63.1252   88.7866   17.0362 C.3     1  UNL1        0.0897
     32 N          63.2264   87.4153   16.4364 N.3     1  UNL1       -0.2691
     33 C          64.1534   87.1677   15.2835 C.3     1  UNL1        0.0897
     34 C          64.2547   85.7965   14.6837 C.3     1  UNL1        0.0897
     35 N          63.4290   84.6731   15.2369 N.3     1  UNL1       -0.2702
     36 C          62.5020   84.9207   16.3899 C.3     1  UNL1        0.0897
     37 C          62.4008   86.2919   16.9896 C.3     1  UNL1        0.0897
@<TRIPOS>BOND
     1    31    32    1
     2    32    33    1
     3    33    34    1
     4    34    35    1
     5    35    30    1
     6    30    29    1
     7    29    28    1
     8    28    27    1
     9    27    21    1
    10    21    22   ar
    11    22    23   ar
    12    23    24   ar
    13    24    25   ar
    14    25    20    1
    15    20     1    1
    16     1     2    2
    17     1     3   am
    18     3     5    1
    19     5     6   ar
    20     6     7   ar
    21     7    10    1
    22    10    11   ar
    23    11    12   ar
    24    12    13   ar
    25    13    14   ar
    26    14    15   ar
    27    15    16   ar
    28    16    17   ar
    29    17    18   ar
    30     7     8   ar
    31     8     9   ar
    32    25    26   ar
    33    35    36    1
    34    36    37    1
    35    37    32    1
    36    26    21   ar
    37     9     5   ar
    38    18    10   ar
    39    18    13    1
    40     3     4    1
    41    14    19    1
@<TRIPOS>MOLECULE
*****
 37 41 0 0 0
SMALL
GASTEIGER

@<TRIPOS>ATOM
      1 C          59.6475   88.8042    7.7520 C.2     1  UNL1        0.2320
      2 O          60.6869   89.7953    8.1848 O.2     1  UNL1       -0.2744
      3 N          58.9191   88.9993    6.4554 N.am    1  UNL1       -0.2639
      4 H          58.2369   88.3488    6.1713 H       1  UNL1        0.1567
      5 C          59.2300   90.1855    5.5916 C.ar    1  UNL1        0.1655
      6 N          60.4987   90.4081    4.8228 N.ar    1  UNL1       -0.2239
      7 C          60.3797   91.7175    4.1010 C.ar    1  UNL1        0.0913
      8 C          59.0374   92.3043    4.4235 C.ar    1  UNL1        0.0573
      9 S          58.3269   91.3574    5.3447 S.2     1  UNL1       -0.0508
     10 C          61.4202   92.3323    3.2125 C.ar    1  UNL1        0.0403
     11 C          62.8748   91.9681    3.1755 C.ar    1  UNL1        0.1021
     12 N          63.5423   92.8300    2.1452 N.ar    1  UNL1       -0.2269
     13 C          62.5003   93.7269    1.5454 C.ar    1  UNL1        0.1406
     14 N          62.5762   94.7839    0.4839 N.ar    1  UNL1       -0.3374
     15 C          61.3406   95.5333    0.0820 C.ar    1  UNL1        0.0735
     16 C          60.0290   95.2257    0.7416 C.ar    1  UNL1        0.0186
     17 C          59.9531   94.1687    1.8032 C.ar    1  UNL1        0.0046
     18 C          61.1887   93.4193    2.2051 C.ar    1  UNL1        0.0370
     19 H          63.4371   94.9858    0.0509 H       1  UNL1        0.1674
     20 C          59.3366   87.6180    8.6158 C.3     1  UNL1        0.1118
     21 C          62.4270   85.4471    9.8352 C.ar    1  UNL1        0.1382
     22 C          62.5224   85.8711   11.2709 C.ar    1  UNL1        0.0369
     23 C          61.5559   86.8774   11.8215 C.ar    1  UNL1        0.0028
     24 C          60.4939   87.4597   10.9366 C.ar    1  UNL1       -0.0036
     25 C          60.3985   87.0357    9.5009 C.ar    1  UNL1       -0.0101
     26 C          61.3650   86.0294    8.9502 C.ar    1  UNL1        0.0331
     27 O          63.3935   84.4408    9.2846 O.3     1  UNL1       -0.4754
     28 C          63.6703   83.1751   10.0406 C.3     1  UNL1        0.2068
     29 C          64.5777   83.1981   11.2348 C.3     1  UNL1        0.0646
     30 C          64.1117   82.6287   12.5420 C.3     1  UNL1        0.0760
     31 C          62.8820   86.2842   17.1383 C.3     1  UNL1        0.0897
     32 N          63.1894   85.3703   15.9892 N.3     1  UNL1       -0.2691
     33 C          64.4392   85.5715   15.1845 C.3     1  UNL1        0.0897
     34 C          64.7467   84.6576   14.0355 C.3     1  UNL1        0.0897
     35 N          63.8043   83.5426   13.6910 N.3     1  UNL1       -0.2702
     36 C          62.5545   83.3414   14.4957 C.3     1  UNL1        0.0897
     37 C          62.2471   84.2553   15.6448 C.3     1  UNL1        0.0897
@<TRIPOS>BOND
     1    31    32    1
     2    32    33    1
     3    33    34    1
     4    34    35    1
     5    35    30    1
     6    30    29    1
     7    29    28    1
     8    28    27    1
     9    27    21    1
    10    21    22   ar
    11    22    23   ar
    12    23    24   ar
    13    24    25   ar
    14    25    20    1
    15    20     1    1
    16     1     2    2
    17     1     3   am
    18     3     5    1
    19     5     6   ar
    20     6     7   ar
    21     7    10    1
    22    10    11   ar
    23    11    12   ar
    24    12    13   ar
    25    13    14   ar
    26    14    15   ar
    27    15    16   ar
    28    16    17   ar
    29    17    18   ar
    30     7     8   ar
    31     8     9   ar
    32    25    26   ar
    33    35    36    1
    34    36    37    1
    35    37    32    1
    36    26    21   ar
    37     9     5   ar
    38    18    10   ar
    39    18    13    1
    40     3     4    1
    41    14    19    1
