@<TRIPOS>MOLECULE
*****
 31 33 0 0 0
SMALL
GASTEIGER

@<TRIPOS>ATOM
      1 C          63.0277   89.6428   11.9455 C.ar    1  UNL1        0.0942
      2 C          63.1489   90.4905   10.7139 C.ar    1  UNL1        0.1078
      3 N          63.9807   91.7384   10.7413 N.ar    1  UNL1       -0.2119
      4 C          64.6914   92.1387   12.0002 C.ar    1  UNL1        0.2206
      5 N          64.5702   91.2910   13.2317 N.ar    1  UNL1       -0.2094
      6 C          63.7383   90.0431   13.2044 C.ar    1  UNL1        0.1613
      7 O          60.6995   88.4900   11.9570 O.2     1  UNL1       -0.2700
      8 C          62.1960   88.3949   11.9182 C.2     1  UNL1        0.2488
      9 N          62.8606   87.0518   11.8521 N.am    1  UNL1       -0.3008
     10 H          63.8428   86.9894   11.8266 H       1  UNL1        0.1497
     11 C          62.0288   85.8039   11.8247 C.3     1  UNL1        0.0898
     12 C          62.6784   84.4652   12.0149 C.3     1  UNL1        0.0246
     13 C          63.3194   83.7704   10.8502 C.3     1  UNL1        0.0338
     14 C          63.9690   82.4319   11.0404 C.3     1  UNL1        0.1422
     15 O          63.9775   81.7880   12.3952 O.3     1  UNL1       -0.3538
     16 C          63.3365   82.4828   13.5598 C.3     1  UNL1        0.1422
     17 C          62.6870   83.8214   13.3696 C.3     1  UNL1        0.0338
     18 C          63.6172   89.1954   14.4359 C.3     1  UNL1        0.4351
     19 F          63.4960   88.3477   15.6675 F       1  UNL1       -0.1644
     20 F          62.4797   90.0495   14.9119 F       1  UNL1       -0.1644
     21 F          64.7546   88.3412   13.9600 F       1  UNL1       -0.1644
     22 N          65.5232   93.3866   12.0275 N.pl3   1  UNL1       -0.2824
     23 H          65.5111   93.9690   12.8212 H       1  UNL1        0.1551
     24 C          66.3734   93.7473   10.8455 C.ar    1  UNL1        0.0550
     25 C          67.3116   92.7342   10.2595 C.ar    1  UNL1        0.0444
     26 C          68.1619   93.0949    9.0776 C.ar    1  UNL1        0.1436
     27 F          69.1001   92.0817    8.4915 F       1  UNL1       -0.2041
     28 C          68.0739   94.4686    8.4817 C.ar    1  UNL1        0.0593
     29 C          67.1357   95.4816    9.0677 C.ar    1  UNL1        0.1436
     30 F          67.0478   96.8554    8.4718 F       1  UNL1       -0.2041
     31 C          66.2855   95.1210   10.2496 C.ar    1  UNL1        0.0444
@<TRIPOS>BOND
     1     7     8    2
     2     8     9   am
     3     9    11    1
     4    11    12    1
     5    12    13    1
     6    13    14    1
     7    14    15    1
     8    15    16    1
     9    16    17    1
    10     8     1    1
    11     1     2   ar
    12     2     3   ar
    13     3     4   ar
    14     4    22    1
    15    22    24    1
    16    24    25   ar
    17    25    26   ar
    18    26    27    1
    19    26    28   ar
    20    28    29   ar
    21    29    30    1
    22    29    31   ar
    23     4     5   ar
    24     5     6   ar
    25     6    18    1
    26    18    19    1
    27    18    20    1
    28    18    21    1
    29    17    12    1
    30     6     1   ar
    31    31    24   ar
    32     9    10    1
    33    22    23    1
@<TRIPOS>MOLECULE
*****
 31 33 0 0 0
SMALL
GASTEIGER

@<TRIPOS>ATOM
      1 C          63.0254   89.6728   11.9354 C.ar    1  UNL1        0.0942
      2 C          63.1561   90.5097   10.6975 C.ar    1  UNL1        0.1078
      3 N          63.9828   91.7610   10.7220 N.ar    1  UNL1       -0.2119
      4 C          64.6790   92.1754   11.9844 C.ar    1  UNL1        0.2206
      5 N          64.5484   91.3385   13.2223 N.ar    1  UNL1       -0.2094
      6 C          63.7215   90.0871   13.1978 C.ar    1  UNL1        0.1613
      7 O          60.7014   88.5115   11.9214 O.2     1  UNL1       -0.2700
      8 C          62.1987   88.4215   11.9109 C.2     1  UNL1        0.2488
      9 N          62.8691   87.0801   11.8760 N.am    1  UNL1       -0.3008
     10 H          63.8519   87.0210   11.8692 H       1  UNL1        0.1497
     11 C          62.0424   85.8287   11.8515 C.3     1  UNL1        0.0898
     12 C          62.6979   84.4928   12.0408 C.3     1  UNL1        0.0246
     13 C          62.6858   83.8358   13.3892 C.3     1  UNL1        0.0338
     14 C          63.3412   82.5000   13.5785 C.3     1  UNL1        0.1422
     15 O          64.0089   81.8212   12.4194 O.3     1  UNL1       -0.3538
     16 C          64.0210   82.4782   11.0710 C.3     1  UNL1        0.1422
     17 C          63.3655   83.8140   10.8818 C.3     1  UNL1        0.0338
     18 C          63.5909   89.2502   14.4357 C.3     1  UNL1        0.4351
     19 F          63.4602   88.4132   15.6736 F       1  UNL1       -0.1644
     20 F          64.7843   88.4440   14.0166 F       1  UNL1       -0.1644
     21 F          62.3974   90.0564   14.8548 F       1  UNL1       -0.1644
     22 N          65.5058   93.4267   12.0089 N.pl3   1  UNL1       -0.2824
     23 H          65.4786   94.0194   12.7946 H       1  UNL1        0.1551
     24 C          66.3739   93.7751   10.8363 C.ar    1  UNL1        0.0550
     25 C          66.2904   95.1404   10.2207 C.ar    1  UNL1        0.0444
     26 C          67.1586   95.4888    9.0482 C.ar    1  UNL1        0.1436
     27 F          67.0751   96.8542    8.4326 F       1  UNL1       -0.2041
     28 C          68.1103   94.4719    8.4912 C.ar    1  UNL1        0.0593
     29 C          68.1938   93.1066    9.1068 C.ar    1  UNL1        0.1436
     30 F          69.1454   92.0897    8.5498 F       1  UNL1       -0.2041
     31 C          67.3256   92.7583   10.2794 C.ar    1  UNL1        0.0444
@<TRIPOS>BOND
     1     7     8    2
     2     8     9   am
     3     9    11    1
     4    11    12    1
     5    12    13    1
     6    13    14    1
     7    14    15    1
     8    15    16    1
     9    16    17    1
    10     8     1    1
    11     1     2   ar
    12     2     3   ar
    13     3     4   ar
    14     4    22    1
    15    22    24    1
    16    24    25   ar
    17    25    26   ar
    18    26    27    1
    19    26    28   ar
    20    28    29   ar
    21    29    30    1
    22    29    31   ar
    23     4     5   ar
    24     5     6   ar
    25     6    18    1
    26    18    19    1
    27    18    20    1
    28    18    21    1
    29    17    12    1
    30     6     1   ar
    31    31    24   ar
    32     9    10    1
    33    22    23    1
@<TRIPOS>MOLECULE
*****
 31 33 0 0 0
SMALL
GASTEIGER

@<TRIPOS>ATOM
      1 C          64.5419   90.0208   14.2419 C.ar    1  UNL1        0.0942
      2 C          65.6843   90.7870   14.8403 C.ar    1  UNL1        0.1078
      3 N          66.1036   92.0972   14.2423 N.ar    1  UNL1       -0.2119
      4 C          65.3805   92.6412   13.0459 C.ar    1  UNL1        0.2206
      5 N          64.2382   91.8750   12.4475 N.ar    1  UNL1       -0.2094
      6 C          63.8189   90.5648   13.0456 C.ar    1  UNL1        0.1613
      7 O          63.2065   88.6872   16.0274 O.2     1  UNL1       -0.2700
      8 C          64.1226   88.7107   14.8399 C.2     1  UNL1        0.2488
      9 N          64.6194   87.4239   14.2504 N.am    1  UNL1       -0.3008
     10 H          65.2207   87.4393   13.4710 H       1  UNL1        0.1497
     11 C          64.2001   86.1137   14.8484 C.3     1  UNL1        0.0898
     12 C          63.8019   84.9754   13.9564 C.3     1  UNL1        0.0246
     13 C          64.1285   83.5651   14.3492 C.3     1  UNL1        0.0338
     14 C          63.7303   82.4268   13.4572 C.3     1  UNL1        0.1422
     15 O          63.0054   82.6988   12.1724 O.3     1  UNL1       -0.3538
     16 C          62.6788   84.1091   11.7796 C.3     1  UNL1        0.1422
     17 C          63.0771   85.2474   12.6716 C.3     1  UNL1        0.0338
     18 C          62.6766   89.7986   12.4472 C.3     1  UNL1        0.4351
     19 F          61.5342   89.0324   11.8489 F       1  UNL1       -0.1644
     20 F          63.5089   89.5049   11.2344 F       1  UNL1       -0.1644
     21 F          61.8443   90.0923   13.6601 F       1  UNL1       -0.1644
     22 N          65.7998   93.9514   12.4479 N.pl3   1  UNL1       -0.2824
     23 H          65.5768   94.7946   12.9044 H       1  UNL1        0.1551
     24 C          66.5589   93.9767   11.1544 C.ar    1  UNL1        0.0550
     25 C          67.1466   92.7109   10.6047 C.ar    1  UNL1        0.0444
     26 C          67.9056   92.7362    9.3112 C.ar    1  UNL1        0.1436
     27 F          68.4933   91.4703    8.7615 F       1  UNL1       -0.2041
     28 C          68.0770   94.0274    8.5674 C.ar    1  UNL1        0.0593
     29 C          67.4894   95.2933    9.1171 C.ar    1  UNL1        0.1436
     30 F          67.6608   96.5846    8.3732 F       1  UNL1       -0.2041
     31 C          66.7303   95.2679   10.4106 C.ar    1  UNL1        0.0444
@<TRIPOS>BOND
     1     7     8    2
     2     8     9   am
     3     9    11    1
     4    11    12    1
     5    12    13    1
     6    13    14    1
     7    14    15    1
     8    15    16    1
     9    16    17    1
    10     8     1    1
    11     1     2   ar
    12     2     3   ar
    13     3     4   ar
    14     4    22    1
    15    22    24    1
    16    24    25   ar
    17    25    26   ar
    18    26    27    1
    19    26    28   ar
    20    28    29   ar
    21    29    30    1
    22    29    31   ar
    23     4     5   ar
    24     5     6   ar
    25     6    18    1
    26    18    19    1
    27    18    20    1
    28    18    21    1
    29    17    12    1
    30     6     1   ar
    31    31    24   ar
    32     9    10    1
    33    22    23    1
@<TRIPOS>MOLECULE
*****
 31 33 0 0 0
SMALL
GASTEIGER

@<TRIPOS>ATOM
      1 C          62.9772   89.0089   12.1264 C.ar    1  UNL1        0.0942
      2 C          63.8902   89.2193   13.2977 C.ar    1  UNL1        0.1078
      3 N          64.6308   90.5150   13.4482 N.ar    1  UNL1       -0.2119
      4 C          64.4584   91.6003   12.4272 C.ar    1  UNL1        0.2206
      5 N          63.5454   91.3899   11.2558 N.ar    1  UNL1       -0.2094
      6 C          62.8048   90.0942   11.1054 C.ar    1  UNL1        0.1613
      7 O          60.7533   87.7186   11.7528 O.2     1  UNL1       -0.2700
      8 C          62.2366   87.7132   11.9759 C.2     1  UNL1        0.2488
      9 N          62.9794   86.4119   12.0485 N.am    1  UNL1       -0.3008
     10 H          63.9529   86.4083   12.1950 H       1  UNL1        0.1497
     11 C          62.2388   85.1162   11.8981 C.3     1  UNL1        0.0898
     12 C          62.6729   83.9095   12.6762 C.3     1  UNL1        0.0246
     13 C          63.0534   84.0455   14.1207 C.3     1  UNL1        0.0338
     14 C          63.4875   82.8388   14.8987 C.3     1  UNL1        0.1422
     15 O          63.5411   81.4961   14.2322 O.3     1  UNL1       -0.3538
     16 C          63.1606   81.3600   12.7877 C.3     1  UNL1        0.1422
     17 C          62.7265   82.5668   12.0097 C.3     1  UNL1        0.0338
     18 C          61.8917   89.8837    9.9340 C.3     1  UNL1        0.4351
     19 F          60.9787   89.6733    8.7627 F       1  UNL1       -0.1644
     20 F          62.8641   88.9005    9.3528 F       1  UNL1       -0.1644
     21 F          60.9194   90.8669   10.5153 F       1  UNL1       -0.1644
     22 N          65.1989   92.8960   12.5776 N.pl3   1  UNL1       -0.2824
     23 H          65.1108   93.4200   13.4064 H       1  UNL1        0.1551
     24 C          66.0738   93.3934   11.4653 C.ar    1  UNL1        0.0550
     25 C          66.8749   92.4223   10.6498 C.ar    1  UNL1        0.0444
     26 C          67.7498   92.9197    9.5375 C.ar    1  UNL1        0.1436
     27 F          68.5509   91.9485    8.7219 F       1  UNL1       -0.2041
     28 C          67.8235   94.3882    9.2407 C.ar    1  UNL1        0.0593
     29 C          67.0224   95.3592   10.0563 C.ar    1  UNL1        0.1436
     30 F          67.0962   96.8278    9.7595 F       1  UNL1       -0.2041
     31 C          66.1476   94.8619   11.1686 C.ar    1  UNL1        0.0444
@<TRIPOS>BOND
     1     7     8    2
     2     8     9   am
     3     9    11    1
     4    11    12    1
     5    12    13    1
     6    13    14    1
     7    14    15    1
     8    15    16    1
     9    16    17    1
    10     8     1    1
    11     1     2   ar
    12     2     3   ar
    13     3     4   ar
    14     4    22    1
    15    22    24    1
    16    24    25   ar
    17    25    26   ar
    18    26    27    1
    19    26    28   ar
    20    28    29   ar
    21    29    30    1
    22    29    31   ar
    23     4     5   ar
    24     5     6   ar
    25     6    18    1
    26    18    19    1
    27    18    20    1
    28    18    21    1
    29    17    12    1
    30     6     1   ar
    31    31    24   ar
    32     9    10    1
    33    22    23    1
@<TRIPOS>MOLECULE
*****
 31 33 0 0 0
SMALL
GASTEIGER

@<TRIPOS>ATOM
      1 C          62.9804   89.0157   12.1286 C.ar    1  UNL1        0.0942
      2 C          63.8931   89.2255   13.3003 C.ar    1  UNL1        0.1078
      3 N          64.6357   90.5201   13.4502 N.ar    1  UNL1       -0.2119
      4 C          64.4656   91.6050   12.4283 C.ar    1  UNL1        0.2206
      5 N          63.5529   91.3951   11.2566 N.ar    1  UNL1       -0.2094
      6 C          62.8102   90.1005   11.1068 C.ar    1  UNL1        0.1613
      7 O          60.7546   87.7288   11.7552 O.2     1  UNL1       -0.2700
      8 C          62.2378   87.7211   11.9788 C.2     1  UNL1        0.2488
      9 N          62.9784   86.4187   12.0526 N.am    1  UNL1       -0.3008
     10 H          63.9519   86.4136   12.1994 H       1  UNL1        0.1497
     11 C          62.2358   85.1241   11.9028 C.3     1  UNL1        0.0898
     12 C          62.6646   83.9185   12.6856 C.3     1  UNL1        0.0246
     13 C          63.0233   84.0544   14.1357 C.3     1  UNL1        0.0338
     14 C          63.4521   82.8489   14.9184 C.3     1  UNL1        0.1422
     15 O          63.5222   81.5073   14.2510 O.3     1  UNL1       -0.3538
     16 C          63.1635   81.3714   12.8009 C.3     1  UNL1        0.1422
     17 C          62.7347   82.5770   12.0182 C.3     1  UNL1        0.0338
     18 C          61.8975   89.8906    9.9351 C.3     1  UNL1        0.4351
     19 F          60.9847   89.6808    8.7634 F       1  UNL1       -0.1644
     20 F          60.9238   90.8716   10.5180 F       1  UNL1       -0.1644
     21 F          62.8712   88.9097    9.3522 F       1  UNL1       -0.1644
     22 N          65.2082   92.8996   12.5781 N.pl3   1  UNL1       -0.2824
     23 H          65.1233   93.4226   13.4079 H       1  UNL1        0.1551
     24 C          66.0802   93.3973   11.4637 C.ar    1  UNL1        0.0550
     25 C          66.1472   94.8652   11.1623 C.ar    1  UNL1        0.0444
     26 C          67.0192   95.3629   10.0479 C.ar    1  UNL1        0.1436
     27 F          67.0862   96.8308    9.7464 F       1  UNL1       -0.2041
     28 C          67.8243   94.3929    9.2350 C.ar    1  UNL1        0.0593
     29 C          67.7573   92.9250    9.5365 C.ar    1  UNL1        0.1436
     30 F          68.5624   91.9549    8.7236 F       1  UNL1       -0.2041
     31 C          66.8853   92.4273   10.6509 C.ar    1  UNL1        0.0444
@<TRIPOS>BOND
     1     7     8    2
     2     8     9   am
     3     9    11    1
     4    11    12    1
     5    12    13    1
     6    13    14    1
     7    14    15    1
     8    15    16    1
     9    16    17    1
    10     8     1    1
    11     1     2   ar
    12     2     3   ar
    13     3     4   ar
    14     4    22    1
    15    22    24    1
    16    24    25   ar
    17    25    26   ar
    18    26    27    1
    19    26    28   ar
    20    28    29   ar
    21    29    30    1
    22    29    31   ar
    23     4     5   ar
    24     5     6   ar
    25     6    18    1
    26    18    19    1
    27    18    20    1
    28    18    21    1
    29    17    12    1
    30     6     1   ar
    31    31    24   ar
    32     9    10    1
    33    22    23    1
@<TRIPOS>MOLECULE
*****
 31 33 0 0 0
SMALL
GASTEIGER

@<TRIPOS>ATOM
      1 C          63.4769   89.1501   12.7304 C.ar    1  UNL1        0.0942
      2 C          63.9661   87.9641   13.5075 C.ar    1  UNL1        0.1078
      3 N          63.4997   86.5854   13.1448 N.ar    1  UNL1       -0.2119
      4 C          62.5439   86.3927   12.0048 C.ar    1  UNL1        0.2206
      5 N          62.0546   87.5787   11.2277 N.ar    1  UNL1       -0.2094
      6 C          62.5211   88.9574   11.5905 C.ar    1  UNL1        0.1613
      7 O          63.4745   91.1684   14.3664 O.2     1  UNL1       -0.2700
      8 C          63.9433   90.5288   13.0931 C.2     1  UNL1        0.2488
      9 N          64.8786   91.2679   12.1826 N.am    1  UNL1       -0.3008
     10 H          65.1863   90.8481   11.3469 H       1  UNL1        0.1497
     11 C          65.3451   92.6466   12.5453 C.3     1  UNL1        0.0898
     12 C          66.1110   93.4656   11.5490 C.3     1  UNL1        0.0246
     13 C          66.0630   94.9634   11.6142 C.3     1  UNL1        0.0338
     14 C          66.8288   95.7824   10.6178 C.3     1  UNL1        0.1422
     15 O          67.6426   95.1036    9.5563 O.3     1  UNL1       -0.3538
     16 C          67.6906   93.6058    9.4910 C.3     1  UNL1        0.1422
     17 C          66.9248   92.7868   10.4874 C.3     1  UNL1        0.0338
     18 C          62.0318   90.1435   10.8133 C.3     1  UNL1        0.4351
     19 F          61.5426   91.3295   10.0362 F       1  UNL1       -0.1644
     20 F          60.9000   90.3120   11.7831 F       1  UNL1       -0.1644
     21 F          63.1637   89.9750    9.8436 F       1  UNL1       -0.1644
     22 N          62.0774   85.0140   11.6421 N.pl3   1  UNL1       -0.2824
     23 H          61.4188   84.8911   10.9207 H       1  UNL1        0.1551
     24 C          62.6143   83.8226   12.3785 C.ar    1  UNL1        0.0550
     25 C          63.3177   84.0063   13.6905 C.ar    1  UNL1        0.0444
     26 C          63.8546   82.8148   14.4269 C.ar    1  UNL1        0.1436
     27 F          64.5581   82.9985   15.7390 F       1  UNL1       -0.2041
     28 C          63.6882   81.4398   13.8512 C.ar    1  UNL1        0.0593
     29 C          62.9848   81.2561   12.5392 C.ar    1  UNL1        0.1436
     30 F          62.8183   79.8810   11.9634 F       1  UNL1       -0.2041
     31 C          62.4479   82.4475   11.8028 C.ar    1  UNL1        0.0444
@<TRIPOS>BOND
     1     7     8    2
     2     8     9   am
     3     9    11    1
     4    11    12    1
     5    12    13    1
     6    13    14    1
     7    14    15    1
     8    15    16    1
     9    16    17    1
    10     8     1    1
    11     1     2   ar
    12     2     3   ar
    13     3     4   ar
    14     4    22    1
    15    22    24    1
    16    24    25   ar
    17    25    26   ar
    18    26    27    1
    19    26    28   ar
    20    28    29   ar
    21    29    30    1
    22    29    31   ar
    23     4     5   ar
    24     5     6   ar
    25     6    18    1
    26    18    19    1
    27    18    20    1
    28    18    21    1
    29    17    12    1
    30     6     1   ar
    31    31    24   ar
    32     9    10    1
    33    22    23    1
@<TRIPOS>MOLECULE
*****
 31 33 0 0 0
SMALL
GASTEIGER

@<TRIPOS>ATOM
      1 C          61.1935   88.7392   10.5976 C.ar    1  UNL1        0.0942
      2 C          62.5164   88.0359   10.6697 C.ar    1  UNL1        0.1078
      3 N          63.4495   88.3085   11.8121 N.ar    1  UNL1       -0.2119
      4 C          63.0597   89.2846   12.8823 C.ar    1  UNL1        0.2206
      5 N          61.7368   89.9880   12.8102 N.ar    1  UNL1       -0.2094
      6 C          60.8037   89.7153   11.6678 C.ar    1  UNL1        0.1613
      7 O          59.2949   87.3213    9.5325 O.2     1  UNL1       -0.2700
      8 C          60.2604   88.4666    9.4553 C.2     1  UNL1        0.2488
      9 N          60.2929   89.3392    8.2356 N.am    1  UNL1       -0.3008
     10 H          60.9266   90.0909    8.1849 H       1  UNL1        0.1497
     11 C          59.3598   89.0666    7.0933 C.3     1  UNL1        0.0898
     12 C          59.0777   90.1388    6.0829 C.3     1  UNL1        0.0246
     13 C          60.2119   90.8265    5.3825 C.3     1  UNL1        0.0338
     14 C          59.9297   91.8987    4.3722 C.3     1  UNL1        0.1422
     15 O          58.5133   92.2832    4.0623 O.3     1  UNL1       -0.3538
     16 C          57.3791   91.5956    4.7628 C.3     1  UNL1        0.1422
     17 C          57.6613   90.5234    5.7731 C.3     1  UNL1        0.0338
     18 C          59.4808   90.4187   11.5956 C.3     1  UNL1        0.4351
     19 F          58.1579   91.1221   11.5234 F       1  UNL1       -0.1644
     20 F          60.0939   91.4835   10.7353 F       1  UNL1       -0.1644
     21 F          58.8677   89.3538   12.4559 F       1  UNL1       -0.1644
     22 N          63.9928   89.5573   14.0246 N.pl3   1  UNL1       -0.2824
     23 H          64.0670   88.9120   14.7644 H       1  UNL1        0.1551
     24 C          64.8129   90.8132   14.0398 C.ar    1  UNL1        0.0550
     25 C          65.4685   91.2654   15.3108 C.ar    1  UNL1        0.0444
     26 C          66.2886   92.5213   15.3260 C.ar    1  UNL1        0.1436
     27 F          66.9443   92.9736   16.5971 F       1  UNL1       -0.2041
     28 C          66.4531   93.3249   14.0702 C.ar    1  UNL1        0.0593
     29 C          65.7974   92.8726   12.7992 C.ar    1  UNL1        0.1436
     30 F          65.9618   93.6763   11.5433 F       1  UNL1       -0.2041
     31 C          64.9773   91.6168   12.7840 C.ar    1  UNL1        0.0444
@<TRIPOS>BOND
     1     7     8    2
     2     8     9   am
     3     9    11    1
     4    11    12    1
     5    12    13    1
     6    13    14    1
     7    14    15    1
     8    15    16    1
     9    16    17    1
    10     8     1    1
    11     1     2   ar
    12     2     3   ar
    13     3     4   ar
    14     4    22    1
    15    22    24    1
    16    24    25   ar
    17    25    26   ar
    18    26    27    1
    19    26    28   ar
    20    28    29   ar
    21    29    30    1
    22    29    31   ar
    23     4     5   ar
    24     5     6   ar
    25     6    18    1
    26    18    19    1
    27    18    20    1
    28    18    21    1
    29    17    12    1
    30     6     1   ar
    31    31    24   ar
    32     9    10    1
    33    22    23    1
@<TRIPOS>MOLECULE
*****
 31 33 0 0 0
SMALL
GASTEIGER

@<TRIPOS>ATOM
      1 C          60.4453   87.6541    8.9074 C.ar    1  UNL1        0.0942
      2 C          61.0903   86.3495    8.5439 C.ar    1  UNL1        0.1078
      3 N          61.9720   85.6473    9.5336 N.ar    1  UNL1       -0.2119
      4 C          62.2088   86.2498   10.8868 C.ar    1  UNL1        0.2206
      5 N          61.5639   87.5544   11.2502 N.ar    1  UNL1       -0.2094
      6 C          60.6821   88.2565   10.2605 C.ar    1  UNL1        0.1613
      7 O          58.1886   87.8292    7.6321 O.2     1  UNL1       -0.2700
      8 C          59.5636   88.3562    7.9177 C.2     1  UNL1        0.2488
      9 N          60.0569   89.5854    7.2135 N.am    1  UNL1       -0.3008
     10 H          60.9594   89.9313    7.4010 H       1  UNL1        0.1497
     11 C          59.1752   90.2876    6.2239 C.3     1  UNL1        0.0898
     12 C          59.7852   91.0772    5.1038 C.3     1  UNL1        0.0246
     13 C          58.9441   92.0414    4.3210 C.3     1  UNL1        0.0338
     14 C          59.5541   92.8310    3.2010 C.3     1  UNL1        0.1422
     15 O          61.0053   92.6563    2.8639 O.3     1  UNL1       -0.3538
     16 C          61.8464   91.6921    3.6467 C.3     1  UNL1        0.1422
     17 C          61.2363   90.9026    4.7667 C.3     1  UNL1        0.0338
     18 C          60.0372   89.5611   10.6239 C.3     1  UNL1        0.4351
     19 F          59.3923   90.8657   10.9873 F       1  UNL1       -0.1644
     20 F          58.9099   88.8209   11.2805 F       1  UNL1       -0.1644
     21 F          61.1645   90.3013    9.9672 F       1  UNL1       -0.1644
     22 N          63.0906   85.5476   11.8765 N.pl3   1  UNL1       -0.2824
     23 H          63.7548   86.0585   12.3932 H       1  UNL1        0.1551
     24 C          62.9603   84.0671   12.0788 C.ar    1  UNL1        0.0550
     25 C          63.3065   83.1244   10.9646 C.ar    1  UNL1        0.0444
     26 C          63.1763   81.6439   11.1670 C.ar    1  UNL1        0.1436
     27 F          63.5226   80.7013   10.0527 F       1  UNL1       -0.2041
     28 C          62.6998   81.1059   12.4836 C.ar    1  UNL1        0.0593
     29 C          62.3535   82.0485   13.5978 C.ar    1  UNL1        0.1436
     30 F          61.8770   81.5106   14.9145 F       1  UNL1       -0.2041
     31 C          62.4838   83.5291   13.3954 C.ar    1  UNL1        0.0444
@<TRIPOS>BOND
     1     7     8    2
     2     8     9   am
     3     9    11    1
     4    11    12    1
     5    12    13    1
     6    13    14    1
     7    14    15    1
     8    15    16    1
     9    16    17    1
    10     8     1    1
    11     1     2   ar
    12     2     3   ar
    13     3     4   ar
    14     4    22    1
    15    22    24    1
    16    24    25   ar
    17    25    26   ar
    18    26    27    1
    19    26    28   ar
    20    28    29   ar
    21    29    30    1
    22    29    31   ar
    23     4     5   ar
    24     5     6   ar
    25     6    18    1
    26    18    19    1
    27    18    20    1
    28    18    21    1
    29    17    12    1
    30     6     1   ar
    31    31    24   ar
    32     9    10    1
    33    22    23    1
@<TRIPOS>MOLECULE
*****
 31 33 0 0 0
SMALL
GASTEIGER

@<TRIPOS>ATOM
      1 C          61.7598   88.6428   10.6101 C.ar    1  UNL1        0.0942
      2 C          61.1343   89.9148   10.1196 C.ar    1  UNL1        0.1078
      3 N          60.1971   89.8869    8.9487 N.ar    1  UNL1       -0.2119
      4 C          59.8855   88.5868    8.2684 C.ar    1  UNL1        0.2206
      5 N          60.5110   87.3148    8.7589 N.ar    1  UNL1       -0.2094
      6 C          61.4482   87.3428    9.9298 C.ar    1  UNL1        0.1613
      7 O          63.1893   87.3860   12.3784 O.2     1  UNL1       -0.2700
      8 C          62.6970   88.6708   11.7810 C.2     1  UNL1        0.2488
      9 N          63.1418   89.9836   12.3544 N.am    1  UNL1       -0.3008
     10 H          62.8187   90.8268   11.9623 H       1  UNL1        0.1497
     11 C          64.0790   90.0115   13.5253 C.3     1  UNL1        0.0898
     12 C          64.9457   91.2124   13.7637 C.3     1  UNL1        0.0246
     13 C          65.2756   92.1364   12.6292 C.3     1  UNL1        0.0338
     14 C          66.1423   93.3372   12.8677 C.3     1  UNL1        0.1422
     15 O          66.6790   93.6140   14.2407 O.3     1  UNL1       -0.3538
     16 C          66.3491   92.6900   15.3753 C.3     1  UNL1        0.1422
     17 C          65.4824   91.4892   15.1368 C.3     1  UNL1        0.0338
     18 C          62.0737   86.0708   10.4204 C.3     1  UNL1        0.4351
     19 F          62.6993   84.7988   10.9109 F       1  UNL1       -0.1644
     20 F          61.0429   85.9827   11.5064 F       1  UNL1       -0.1644
     21 F          63.1046   86.1589    9.3343 F       1  UNL1       -0.1644
     22 N          58.9483   88.5589    7.0975 N.pl3   1  UNL1       -0.2824
     23 H          58.3798   87.7705    6.9408 H       1  UNL1        0.1551
     24 C          58.8773   89.7320    6.1655 C.ar    1  UNL1        0.0550
     25 C          60.1295   90.2668    5.5363 C.ar    1  UNL1        0.0444
     26 C          60.0585   91.4400    4.6042 C.ar    1  UNL1        0.1436
     27 F          61.3108   91.9748    3.9750 F       1  UNL1       -0.2041
     28 C          58.7354   92.0782    4.3014 C.ar    1  UNL1        0.0593
     29 C          57.4832   91.5434    4.9305 C.ar    1  UNL1        0.1436
     30 F          56.1599   92.1817    4.6277 F       1  UNL1       -0.2041
     31 C          57.5542   90.3703    5.8626 C.ar    1  UNL1        0.0444
@<TRIPOS>BOND
     1     7     8    2
     2     8     9   am
     3     9    11    1
     4    11    12    1
     5    12    13    1
     6    13    14    1
     7    14    15    1
     8    15    16    1
     9    16    17    1
    10     8     1    1
    11     1     2   ar
    12     2     3   ar
    13     3     4   ar
    14     4    22    1
    15    22    24    1
    16    24    25   ar
    17    25    26   ar
    18    26    27    1
    19    26    28   ar
    20    28    29   ar
    21    29    30    1
    22    29    31   ar
    23     4     5   ar
    24     5     6   ar
    25     6    18    1
    26    18    19    1
    27    18    20    1
    28    18    21    1
    29    17    12    1
    30     6     1   ar
    31    31    24   ar
    32     9    10    1
    33    22    23    1
