@<TRIPOS>MOLECULE
*****
 28 31 0 0 0
SMALL
GASTEIGER

@<TRIPOS>ATOM
      1 C          66.5019   93.6054   13.2672 C.ar    1  UNL1        0.2409
      2 N          66.4593   94.2678   11.9220 N.ar    1  UNL1       -0.1111
      3 N          65.5256   93.4836   11.0485 N.ar    1  UNL1       -0.1271
      4 C          64.9910   92.3365   11.8537 C.ar    1  UNL1        0.1712
      5 C          64.0328   91.2331   11.5155 C.ar    1  UNL1        0.0383
      6 C          63.6780   90.2050   12.5486 C.ar    1  UNL1        0.0217
      7 C          64.2814   90.2803   13.9197 C.ar    1  UNL1       -0.0052
      8 C          65.2397   91.3837   14.2579 C.ar    1  UNL1        0.0796
      9 N          65.5945   92.4117   13.2249 N.ar    1  UNL1       -0.2600
     10 C          63.9266   89.2521   14.9528 C.3     1  UNL1        0.0236
     11 C          63.2696   88.8882   16.2512 C.3     1  UNL1        0.0047
     12 C          63.9691   87.8354   15.4435 C.3     1  UNL1        0.0047
     13 N          67.3101   94.0572   14.4473 N.pl3   1  UNL1       -0.1872
     14 H          67.3894   95.0171   14.6511 H       1  UNL1        0.1764
     15 C          68.6846   92.0359   16.1866 C.3     1  UNL1        0.1997
     16 S          67.9973   93.0466   15.3169 S.O2    1  UNL1        0.0580
     17 O          68.9311   92.7130   14.1913 O.2     1  UNL1       -0.1544
     18 O          67.0636   93.3802   16.4425 O.2     1  UNL1       -0.1544
     19 C          62.7198   89.1016   12.2103 C.3     1  UNL1        0.2318
     20 O          61.6949   89.3021   11.1336 O.3     1  UNL1       -0.4706
     21 C          61.4448   88.2201   10.1252 C.ar    1  UNL1        0.1407
     22 C          62.4786   87.1587    9.8921 C.ar    1  UNL1        0.0483
     23 C          62.2285   86.0767    8.8837 C.ar    1  UNL1        0.0615
     24 CL         63.2624   85.0153    8.6506 Cl      1  UNL1       -0.0821
     25 C          60.9445   86.0562    8.1085 C.ar    1  UNL1        0.0230
     26 C          59.9107   87.1177    8.3417 C.ar    1  UNL1        0.0615
     27 CL         58.6267   87.0973    7.5665 Cl      1  UNL1       -0.0821
     28 C          60.1608   88.1997    9.3501 C.ar    1  UNL1        0.0483
@<TRIPOS>BOND
     1    15    16    1
     2    16    17    2
     3    16    18    2
     4    16    13    1
     5    13     1    1
     6     1     2   ar
     7     2     3   ar
     8     3     4   ar
     9     4     5   ar
    10     5     6   ar
    11     6    19    1
    12    19    20    1
    13    20    21    1
    14    21    22   ar
    15    22    23   ar
    16    23    24    1
    17    23    25   ar
    18    25    26   ar
    19    26    27    1
    20    26    28   ar
    21     6     7   ar
    22     7    10    1
    23    10    11    1
    24    11    12    1
    25     7     8   ar
    26     8     9   ar
    27     9     1   ar
    28     9     4   ar
    29    28    21   ar
    30    12    10    1
    31    13    14    1
@<TRIPOS>MOLECULE
*****
 28 31 0 0 0
SMALL
GASTEIGER

@<TRIPOS>ATOM
      1 C          63.9870   83.6248   13.7788 C.ar    1  UNL1        0.2409
      2 N          64.7246   84.1606   14.9700 N.ar    1  UNL1       -0.1111
      3 N          64.6787   85.6586   14.9084 N.ar    1  UNL1       -0.1271
      4 C          63.9126   86.0487   13.6791 C.ar    1  UNL1        0.1712
      5 C          63.5491   87.3860   13.1053 C.ar    1  UNL1        0.0383
      6 C          62.7581   87.4664   11.8333 C.ar    1  UNL1        0.0217
      7 C          62.3307   86.2095   11.1352 C.ar    1  UNL1       -0.0052
      8 C          62.6942   84.8721   11.7091 C.ar    1  UNL1        0.0796
      9 N          63.4852   84.7917   12.9810 N.ar    1  UNL1       -0.2600
     10 C          61.5397   86.2899    9.8632 C.3     1  UNL1        0.0236
     11 C          61.4215   86.0397    8.3890 C.3     1  UNL1        0.0047
     12 C          60.2879   86.6794    9.1344 C.3     1  UNL1        0.0047
     13 N          63.7865   82.1764   13.4442 N.pl3   1  UNL1       -0.1872
     14 H          64.5278   81.6518   13.0640 H       1  UNL1        0.1764
     15 C          61.1266   80.8781   13.9335 C.3     1  UNL1        0.1997
     16 S          62.4566   81.5273   13.6889 S.O2    1  UNL1        0.0580
     17 O          62.5844   80.7780   12.3957 O.2     1  UNL1       -0.1544
     18 O          62.3288   82.2766   14.9820 O.2     1  UNL1       -0.1544
     19 C          62.3946   88.8038   11.2595 C.3     1  UNL1        0.2318
     20 O          62.3835   90.0192   12.1384 O.3     1  UNL1       -0.4706
     21 C          63.6308   90.8357   12.3052 C.ar    1  UNL1        0.1407
     22 C          64.1649   91.6331   11.1525 C.ar    1  UNL1        0.0483
     23 C          65.4121   92.4496   11.3192 C.ar    1  UNL1        0.0615
     24 CL         65.9462   93.2469   10.1665 Cl      1  UNL1       -0.0821
     25 C          66.1252   92.4686   12.6388 C.ar    1  UNL1        0.0230
     26 C          65.5910   91.6712   13.7915 C.ar    1  UNL1        0.0615
     27 CL         66.3041   91.6902   15.1110 Cl      1  UNL1       -0.0821
     28 C          64.3438   90.8547   13.6247 C.ar    1  UNL1        0.0483
@<TRIPOS>BOND
     1    15    16    1
     2    16    17    2
     3    16    18    2
     4    16    13    1
     5    13     1    1
     6     1     2   ar
     7     2     3   ar
     8     3     4   ar
     9     4     5   ar
    10     5     6   ar
    11     6    19    1
    12    19    20    1
    13    20    21    1
    14    21    22   ar
    15    22    23   ar
    16    23    24    1
    17    23    25   ar
    18    25    26   ar
    19    26    27    1
    20    26    28   ar
    21     6     7   ar
    22     7    10    1
    23    10    11    1
    24    11    12    1
    25     7     8   ar
    26     8     9   ar
    27     9     1   ar
    28     9     4   ar
    29    28    21   ar
    30    12    10    1
    31    13    14    1
@<TRIPOS>MOLECULE
*****
 28 31 0 0 0
SMALL
GASTEIGER

@<TRIPOS>ATOM
      1 C          63.9715   83.5971   13.7866 C.ar    1  UNL1        0.2409
      2 N          64.6846   84.1465   14.9865 N.ar    1  UNL1       -0.1111
      3 N          64.6299   85.6437   14.9130 N.ar    1  UNL1       -0.1271
      4 C          63.8830   86.0197   13.6677 C.ar    1  UNL1        0.1712
      5 C          63.5209   87.3504   13.0777 C.ar    1  UNL1        0.0383
      6 C          62.7518   87.4162   11.7916 C.ar    1  UNL1        0.0217
      7 C          62.3449   86.1515   11.0955 C.ar    1  UNL1       -0.0052
      8 C          62.7070   84.8207   11.6854 C.ar    1  UNL1        0.0796
      9 N          63.4761   84.7549   12.9716 N.ar    1  UNL1       -0.2600
     10 C          61.5758   86.2174    9.8092 C.3     1  UNL1        0.0236
     11 C          60.3072   86.5201    9.0683 C.3     1  UNL1        0.0047
     12 C          61.5123   86.0288    8.3226 C.3     1  UNL1        0.0047
     13 N          63.7863   82.1451   13.4592 N.pl3   1  UNL1       -0.1872
     14 H          64.5379   81.6224   13.0970 H       1  UNL1        0.1764
     15 C          61.1258   80.8336   13.9081 C.3     1  UNL1        0.1997
     16 S          62.4561   81.4893   13.6837 S.O2    1  UNL1        0.0580
     17 O          62.6029   80.7481   12.3879 O.2     1  UNL1       -0.1544
     18 O          62.3094   82.2306   14.9794 O.2     1  UNL1       -0.1544
     19 C          62.3896   88.7470   11.2016 C.3     1  UNL1        0.2318
     20 O          62.3513   89.9679   12.0721 O.3     1  UNL1       -0.4706
     21 C          63.5880   90.7965   12.2569 C.ar    1  UNL1        0.1407
     22 C          64.2799   90.8250   13.5873 C.ar    1  UNL1        0.0483
     23 C          65.5166   91.6536   13.7721 C.ar    1  UNL1        0.0615
     24 CL         66.2085   91.6820   15.1026 Cl      1  UNL1       -0.0821
     25 C          66.0613   92.4537   12.6262 C.ar    1  UNL1        0.0230
     26 C          65.3693   92.4253   11.2956 C.ar    1  UNL1        0.0615
     27 CL         65.9139   93.2254   10.1497 Cl      1  UNL1       -0.0821
     28 C          64.1326   91.5967   11.1110 C.ar    1  UNL1        0.0483
@<TRIPOS>BOND
     1    15    16    1
     2    16    17    2
     3    16    18    2
     4    16    13    1
     5    13     1    1
     6     1     2   ar
     7     2     3   ar
     8     3     4   ar
     9     4     5   ar
    10     5     6   ar
    11     6    19    1
    12    19    20    1
    13    20    21    1
    14    21    22   ar
    15    22    23   ar
    16    23    24    1
    17    23    25   ar
    18    25    26   ar
    19    26    27    1
    20    26    28   ar
    21     6     7   ar
    22     7    10    1
    23    10    11    1
    24    11    12    1
    25     7     8   ar
    26     8     9   ar
    27     9     1   ar
    28     9     4   ar
    29    28    21   ar
    30    12    10    1
    31    13    14    1
@<TRIPOS>MOLECULE
*****
 28 31 0 0 0
SMALL
GASTEIGER

@<TRIPOS>ATOM
      1 C          66.0861   93.6102   12.4896 C.ar    1  UNL1        0.2409
      2 N          67.1451   93.7223   13.5459 N.ar    1  UNL1       -0.1111
      3 N          67.0017   92.5513   14.4723 N.ar    1  UNL1       -0.1271
      4 C          65.8540   91.7154   13.9885 C.ar    1  UNL1        0.1712
      5 C          65.2510   90.4430   14.5055 C.ar    1  UNL1        0.0383
      6 C          64.0822   89.8249   13.7970 C.ar    1  UNL1        0.0217
      7 C          63.5164   90.4792   12.5717 C.ar    1  UNL1       -0.0052
      8 C          64.1194   91.7518   12.0547 C.ar    1  UNL1        0.0796
      9 N          65.2881   92.3698   12.7631 N.ar    1  UNL1       -0.2600
     10 C          62.3476   89.8611   11.8632 C.3     1  UNL1        0.0236
     11 C          60.8736   89.5975   11.7745 C.3     1  UNL1        0.0047
     12 C          61.7972   89.0542   10.7249 C.3     1  UNL1        0.0047
     13 N          65.8641   94.5698   11.3583 N.pl3   1  UNL1       -0.1872
     14 H          65.0666   95.1471   11.3518 H       1  UNL1        0.1764
     15 C          67.8501   94.7301    9.1155 C.3     1  UNL1        0.1997
     16 S          66.8570   94.6500   10.2369 S.O2    1  UNL1        0.0580
     17 O          66.7453   93.1682   10.0321 O.2     1  UNL1       -0.1544
     18 O          66.9687   96.1317   10.4418 O.2     1  UNL1       -0.1544
     19 C          63.4793   88.5523   14.3140 C.3     1  UNL1        0.2318
     20 O          64.2816   87.2851   14.3066 O.3     1  UNL1       -0.4706
     21 C          63.7767   86.0820   13.5665 C.ar    1  UNL1        0.1407
     22 C          63.0029   86.2548   12.2933 C.ar    1  UNL1        0.0483
     23 C          62.4979   85.0517   11.5532 C.ar    1  UNL1        0.0615
     24 CL         61.7241   85.2247   10.2800 Cl      1  UNL1       -0.0821
     25 C          62.7669   83.6758   12.0865 C.ar    1  UNL1        0.0230
     26 C          63.5407   83.5029   13.3598 C.ar    1  UNL1        0.0615
     27 CL         63.8097   82.1270   13.8931 Cl      1  UNL1       -0.0821
     28 C          64.0456   84.7060   14.0998 C.ar    1  UNL1        0.0483
@<TRIPOS>BOND
     1    15    16    1
     2    16    17    2
     3    16    18    2
     4    16    13    1
     5    13     1    1
     6     1     2   ar
     7     2     3   ar
     8     3     4   ar
     9     4     5   ar
    10     5     6   ar
    11     6    19    1
    12    19    20    1
    13    20    21    1
    14    21    22   ar
    15    22    23   ar
    16    23    24    1
    17    23    25   ar
    18    25    26   ar
    19    26    27    1
    20    26    28   ar
    21     6     7   ar
    22     7    10    1
    23    10    11    1
    24    11    12    1
    25     7     8   ar
    26     8     9   ar
    27     9     1   ar
    28     9     4   ar
    29    28    21   ar
    30    12    10    1
    31    13    14    1
@<TRIPOS>MOLECULE
*****
 28 31 0 0 0
SMALL
GASTEIGER

@<TRIPOS>ATOM
      1 C          63.3757   85.3476   13.5466 C.ar    1  UNL1        0.2409
      2 N          64.0224   84.9752   14.8478 N.ar    1  UNL1       -0.1111
      3 N          64.5870   86.2233   15.4587 N.ar    1  UNL1       -0.1271
      4 C          64.2893   87.3672   14.5351 C.ar    1  UNL1        0.1712
      5 C          64.6032   88.8316   14.6175 C.ar    1  UNL1        0.0383
      6 C          64.1685   89.7548   13.5182 C.ar    1  UNL1        0.0217
      7 C          63.4198   89.2136   12.3365 C.ar    1  UNL1       -0.0052
      8 C          63.1059   87.7491   12.2540 C.ar    1  UNL1        0.0796
      9 N          63.5407   86.8259   13.3534 N.ar    1  UNL1       -0.2600
     10 C          62.9851   90.1369   11.2370 C.3     1  UNL1        0.0236
     11 C          61.9464   90.5858   10.2524 C.3     1  UNL1        0.0047
     12 C          63.2707   91.2870   10.3176 C.3     1  UNL1        0.0047
     13 N          62.6852   84.4069   12.6041 N.pl3   1  UNL1       -0.1872
     14 H          61.7294   84.2036   12.7237 H       1  UNL1        0.1764
     15 C          64.2169   83.1447   10.3545 C.3     1  UNL1        0.1997
     16 S          63.4510   83.7758   11.4793 S.O2    1  UNL1        0.0580
     17 O          62.8545   84.7623   10.5196 O.2     1  UNL1       -0.1544
     18 O          64.0475   82.7893   12.4390 O.2     1  UNL1       -0.1544
     19 C          64.4824   91.2194   13.6006 C.3     1  UNL1        0.2318
     20 O          65.9031   91.6889   13.4959 O.3     1  UNL1       -0.4706
     21 C          66.3193   92.5714   12.3566 C.ar    1  UNL1        0.1407
     22 C          67.1289   92.0065   11.2273 C.ar    1  UNL1        0.0483
     23 C          67.5452   92.8890   10.0880 C.ar    1  UNL1        0.0615
     24 CL         68.3547   92.3239    8.9587 Cl      1  UNL1       -0.0821
     25 C          67.1518   94.3364   10.0780 C.ar    1  UNL1        0.0230
     26 C          66.3421   94.9014   11.2073 C.ar    1  UNL1        0.0615
     27 CL         65.9487   96.3488   11.1974 Cl      1  UNL1       -0.0821
     28 C          65.9259   94.0189   12.3466 C.ar    1  UNL1        0.0483
@<TRIPOS>BOND
     1    15    16    1
     2    16    17    2
     3    16    18    2
     4    16    13    1
     5    13     1    1
     6     1     2   ar
     7     2     3   ar
     8     3     4   ar
     9     4     5   ar
    10     5     6   ar
    11     6    19    1
    12    19    20    1
    13    20    21    1
    14    21    22   ar
    15    22    23   ar
    16    23    24    1
    17    23    25   ar
    18    25    26   ar
    19    26    27    1
    20    26    28   ar
    21     6     7   ar
    22     7    10    1
    23    10    11    1
    24    11    12    1
    25     7     8   ar
    26     8     9   ar
    27     9     1   ar
    28     9     4   ar
    29    28    21   ar
    30    12    10    1
    31    13    14    1
@<TRIPOS>MOLECULE
*****
 28 31 0 0 0
SMALL
GASTEIGER

@<TRIPOS>ATOM
      1 C          61.9763   86.2799   11.3209 C.ar    1  UNL1        0.2409
      2 N          61.4392   86.2474    9.9208 N.ar    1  UNL1       -0.1111
      3 N          61.6399   87.6051    9.3156 N.ar    1  UNL1       -0.1271
      4 C          62.3011   88.4768   10.3418 C.ar    1  UNL1        0.1712
      5 C          62.7407   89.9106   10.3078 C.ar    1  UNL1        0.0383
      6 C          63.3882   90.5252   11.5132 C.ar    1  UNL1        0.0217
      7 C          63.5961   89.7062   12.7524 C.ar    1  UNL1       -0.0052
      8 C          63.1565   88.2724   12.7865 C.ar    1  UNL1        0.0796
      9 N          62.5090   87.6578   11.5811 N.ar    1  UNL1       -0.2600
     10 C          64.2437   90.3209   13.9579 C.3     1  UNL1        0.0236
     11 C          65.4741   90.8027   14.6678 C.3     1  UNL1        0.0047
     12 C          64.1348   90.9038   15.3356 C.3     1  UNL1        0.0047
     13 N          61.9801   85.1355   12.2906 N.pl3   1  UNL1       -0.1872
     14 H          61.1291   84.7415   12.5904 H       1  UNL1        0.1764
     15 C          64.5807   84.0473   13.3166 C.3     1  UNL1        0.1997
     16 S          63.2804   84.5914   12.8036 S.O2    1  UNL1        0.0580
     17 O          62.9724   85.1395   14.1655 O.2     1  UNL1       -0.1544
     18 O          63.5883   84.0434   11.4417 O.2     1  UNL1       -0.1544
     19 C          63.8278   91.9590   11.4791 C.3     1  UNL1        0.2318
     20 O          65.2032   92.3330   11.9461 O.3     1  UNL1       -0.4706
     21 C          66.1385   93.0553   11.0221 C.ar    1  UNL1        0.1407
     22 C          66.0658   94.5483   10.8979 C.ar    1  UNL1        0.0483
     23 C          67.0011   95.2705    9.9739 C.ar    1  UNL1        0.0615
     24 CL         66.9282   96.7635    9.8497 Cl      1  UNL1       -0.0821
     25 C          68.0091   94.4996    9.1742 C.ar    1  UNL1        0.0230
     26 C          68.0818   93.0065    9.2984 C.ar    1  UNL1        0.0615
     27 CL         69.0898   92.2356    8.4987 Cl      1  UNL1       -0.0821
     28 C          67.1465   92.2843   10.2224 C.ar    1  UNL1        0.0483
@<TRIPOS>BOND
     1    15    16    1
     2    16    17    2
     3    16    18    2
     4    16    13    1
     5    13     1    1
     6     1     2   ar
     7     2     3   ar
     8     3     4   ar
     9     4     5   ar
    10     5     6   ar
    11     6    19    1
    12    19    20    1
    13    20    21    1
    14    21    22   ar
    15    22    23   ar
    16    23    24    1
    17    23    25   ar
    18    25    26   ar
    19    26    27    1
    20    26    28   ar
    21     6     7   ar
    22     7    10    1
    23    10    11    1
    24    11    12    1
    25     7     8   ar
    26     8     9   ar
    27     9     1   ar
    28     9     4   ar
    29    28    21   ar
    30    12    10    1
    31    13    14    1
@<TRIPOS>MOLECULE
*****
 28 31 0 0 0
SMALL
GASTEIGER

@<TRIPOS>ATOM
      1 C          64.6564   90.9231   14.2035 C.ar    1  UNL1        0.2409
      2 N          64.1133   91.8757   13.1800 N.ar    1  UNL1       -0.1111
      3 N          63.3529   91.0784   12.1620 N.ar    1  UNL1       -0.1271
      4 C          63.4261   89.6331   12.5564 C.ar    1  UNL1        0.1712
      5 C          62.8633   88.3919   11.9297 C.ar    1  UNL1        0.0383
      6 C          63.1060   87.0548   12.5647 C.ar    1  UNL1        0.0217
      7 C          63.9116   86.9588   13.8263 C.ar    1  UNL1       -0.0052
      8 C          64.4744   88.2000   14.4531 C.ar    1  UNL1        0.0796
      9 N          64.2317   89.5371   13.8181 N.ar    1  UNL1       -0.2600
     10 C          64.1543   85.6216   14.4613 C.3     1  UNL1        0.0236
     11 C          64.8505   84.2930   14.4659 C.3     1  UNL1        0.0047
     12 C          63.8786   84.6344   15.5563 C.3     1  UNL1        0.0047
     13 N          65.4797   91.2918   15.4019 N.pl3   1  UNL1       -0.1872
     14 H          65.2881   90.8812   16.2760 H       1  UNL1        0.1764
     15 C          67.7100   93.2804   15.1355 C.3     1  UNL1        0.1997
     16 S          66.5948   92.2861   15.2687 S.O2    1  UNL1        0.0580
     17 O          66.1566   92.9480   16.5415 O.2     1  UNL1       -0.1544
     18 O          67.0329   91.6242   13.9960 O.2     1  UNL1       -0.1544
     19 C          62.5431   85.8137   11.9379 C.3     1  UNL1        0.2318
     20 O          63.1041   85.3071   10.6423 O.3     1  UNL1       -0.4706
     21 C          62.2983   85.4177    9.3818 C.ar    1  UNL1        0.1407
     22 C          62.8120   84.8150    8.1080 C.ar    1  UNL1        0.0483
     23 C          62.0063   84.9256    6.8476 C.ar    1  UNL1        0.0615
     24 CL         62.5201   84.3229    5.5738 Cl      1  UNL1       -0.0821
     25 C          60.6869   85.6390    6.8611 C.ar    1  UNL1        0.0230
     26 C          60.1732   86.2418    8.1350 C.ar    1  UNL1        0.0615
     27 CL         58.8538   86.9552    8.1485 Cl      1  UNL1       -0.0821
     28 C          60.9789   86.1311    9.3954 C.ar    1  UNL1        0.0483
@<TRIPOS>BOND
     1    15    16    1
     2    16    17    2
     3    16    18    2
     4    16    13    1
     5    13     1    1
     6     1     2   ar
     7     2     3   ar
     8     3     4   ar
     9     4     5   ar
    10     5     6   ar
    11     6    19    1
    12    19    20    1
    13    20    21    1
    14    21    22   ar
    15    22    23   ar
    16    23    24    1
    17    23    25   ar
    18    25    26   ar
    19    26    27    1
    20    26    28   ar
    21     6     7   ar
    22     7    10    1
    23    10    11    1
    24    11    12    1
    25     7     8   ar
    26     8     9   ar
    27     9     1   ar
    28     9     4   ar
    29    28    21   ar
    30    12    10    1
    31    13    14    1
@<TRIPOS>MOLECULE
*****
 28 31 0 0 0
SMALL
GASTEIGER

@<TRIPOS>ATOM
      1 C          63.8203   84.9936   13.5520 C.ar    1  UNL1        0.2409
      2 N          64.4403   84.7155   14.8893 N.ar    1  UNL1       -0.1111
      3 N          64.7059   86.0308   15.5597 N.ar    1  UNL1       -0.1271
      4 C          64.2500   87.1218   14.6368 C.ar    1  UNL1        0.1712
      5 C          64.2625   88.6162   14.7659 C.ar    1  UNL1        0.0383
      6 C          63.7277   89.4695   13.6542 C.ar    1  UNL1        0.0217
      7 C          63.1805   88.8285   12.4135 C.ar    1  UNL1       -0.0052
      8 C          63.1679   87.3341   12.2843 C.ar    1  UNL1        0.0796
      9 N          63.7027   86.4808   13.3960 N.ar    1  UNL1       -0.2600
     10 C          62.6457   89.6819   11.3018 C.3     1  UNL1        0.0236
     11 C          62.8156   90.8231   10.3432 C.3     1  UNL1        0.0047
     12 C          61.5495   90.0188   10.3350 C.3     1  UNL1        0.0047
     13 N          63.3929   83.9651   12.5473 N.pl3   1  UNL1       -0.1872
     14 H          63.1081   84.2447   11.6473 H       1  UNL1        0.1764
     15 C          63.4060   81.0560   13.2802 C.3     1  UNL1        0.1997
     16 S          63.3995   82.5106   12.9137 S.O2    1  UNL1        0.0580
     17 O          62.1591   82.7114   13.7330 O.2     1  UNL1       -0.1544
     18 O          64.6398   82.3098   12.0944 O.2     1  UNL1       -0.1544
     19 C          63.7403   90.9640   13.7834 C.3     1  UNL1        0.2318
     20 O          64.5078   91.6142   14.8960 O.3     1  UNL1       -0.4706
     21 C          65.9486   91.9819   14.6985 C.ar    1  UNL1        0.1407
     22 C          66.6509   92.8345   15.7131 C.ar    1  UNL1        0.0483
     23 C          68.0917   93.2023   15.5155 C.ar    1  UNL1        0.0615
     24 CL         68.7940   94.0549   16.5302 Cl      1  UNL1       -0.0821
     25 C          68.8301   92.7172   14.3032 C.ar    1  UNL1        0.0230
     26 C          68.1276   91.8645   13.2886 C.ar    1  UNL1        0.0615
     27 CL         68.8660   91.3795   12.0763 Cl      1  UNL1       -0.0821
     28 C          66.6869   91.4969   13.4862 C.ar    1  UNL1        0.0483
@<TRIPOS>BOND
     1    15    16    1
     2    16    17    2
     3    16    18    2
     4    16    13    1
     5    13     1    1
     6     1     2   ar
     7     2     3   ar
     8     3     4   ar
     9     4     5   ar
    10     5     6   ar
    11     6    19    1
    12    19    20    1
    13    20    21    1
    14    21    22   ar
    15    22    23   ar
    16    23    24    1
    17    23    25   ar
    18    25    26   ar
    19    26    27    1
    20    26    28   ar
    21     6     7   ar
    22     7    10    1
    23    10    11    1
    24    11    12    1
    25     7     8   ar
    26     8     9   ar
    27     9     1   ar
    28     9     4   ar
    29    28    21   ar
    30    12    10    1
    31    13    14    1
@<TRIPOS>MOLECULE
*****
 28 31 0 0 0
SMALL
GASTEIGER

@<TRIPOS>ATOM
      1 C          66.0193   93.1732   13.0779 C.ar    1  UNL1        0.2409
      2 N          65.9458   93.6284   11.6505 N.ar    1  UNL1       -0.1111
      3 N          65.0376   92.6910   10.9112 N.ar    1  UNL1       -0.1271
      4 C          64.5498   91.6565   11.8817 C.ar    1  UNL1        0.1712
      5 C          63.6315   90.4816   11.7191 C.ar    1  UNL1        0.0383
      6 C          63.3200   89.6048   12.8956 C.ar    1  UNL1        0.0217
      7 C          63.9267   89.9028   14.2345 C.ar    1  UNL1       -0.0052
      8 C          64.8451   91.0777   14.3972 C.ar    1  UNL1        0.0796
      9 N          65.1566   91.9545   13.2207 N.ar    1  UNL1       -0.2600
     10 C          63.6152   89.0258   15.4110 C.3     1  UNL1        0.0236
     11 C          63.6633   87.6842   16.0800 C.3     1  UNL1        0.0047
     12 C          63.0276   88.8488   16.7797 C.3     1  UNL1        0.0047
     13 N          66.8158   93.8227   14.1705 N.pl3   1  UNL1       -0.1872
     14 H          66.7327   94.7903   14.3316 H       1  UNL1        0.1764
     15 C          68.6618   92.1729   15.8648 C.3     1  UNL1        0.1997
     16 S          67.7388   92.9978   15.0176 S.O2    1  UNL1        0.0580
     17 O          67.0393   93.4835   16.2525 O.2     1  UNL1       -0.1544
     18 O          68.4381   92.5122   13.7827 O.2     1  UNL1       -0.1544
     19 C          62.4017   88.4299   12.7329 C.3     1  UNL1        0.2318
     20 O          62.6500   87.4290   11.6437 O.3     1  UNL1       -0.4706
     21 C          63.0610   86.0288   11.9911 C.ar    1  UNL1        0.1407
     22 C          63.4763   85.6951   13.3932 C.ar    1  UNL1        0.0483
     23 C          63.8873   84.2949   13.7406 C.ar    1  UNL1        0.0615
     24 CL         64.3026   83.9613   15.1428 Cl      1  UNL1       -0.0821
     25 C          63.8831   83.2285   12.6857 C.ar    1  UNL1        0.0230
     26 C          63.4678   83.5623   11.2835 C.ar    1  UNL1        0.0615
     27 CL         63.4635   82.4959   10.2286 Cl      1  UNL1       -0.0821
     28 C          63.0568   84.9624   10.9362 C.ar    1  UNL1        0.0483
@<TRIPOS>BOND
     1    15    16    1
     2    16    17    2
     3    16    18    2
     4    16    13    1
     5    13     1    1
     6     1     2   ar
     7     2     3   ar
     8     3     4   ar
     9     4     5   ar
    10     5     6   ar
    11     6    19    1
    12    19    20    1
    13    20    21    1
    14    21    22   ar
    15    22    23   ar
    16    23    24    1
    17    23    25   ar
    18    25    26   ar
    19    26    27    1
    20    26    28   ar
    21     6     7   ar
    22     7    10    1
    23    10    11    1
    24    11    12    1
    25     7     8   ar
    26     8     9   ar
    27     9     1   ar
    28     9     4   ar
    29    28    21   ar
    30    12    10    1
    31    13    14    1
