@<TRIPOS>MOLECULE
*****
 38 42 0 0 0
SMALL
GASTEIGER

@<TRIPOS>ATOM
      1 C          64.6745   90.7475   15.1247 C.3     1  UNL1        0.2250
      2 C          65.8710   91.5487   14.7046 C.2     1  UNL1        0.0436
      3 C          66.3098   92.7266   15.5233 C.2     1  UNL1        0.0288
      4 C          65.5521   93.1033   16.7618 C.2     1  UNL1        0.0896
      5 N          64.3557   92.3021   17.1819 N.am    1  UNL1       -0.1770
      6 C          63.9169   91.1242   16.3632 C.2     1  UNL1        0.2627
      7 O          62.7204   90.3229   16.7833 O.2     1  UNL1       -0.2719
      8 C          63.1013   85.2528   12.1354 C.2     1  UNL1        0.0332
      9 C          62.4995   86.1809   11.1224 C.2     1  UNL1        0.0101
     10 C          62.5786   87.6651   11.3247 C.2     1  UNL1        0.0255
     11 C          61.9766   88.5933   10.3116 C.3     1  UNL1        0.0351
     12 C          63.2595   88.2211   12.5401 C.2     1  UNL1        0.2278
     13 N          63.4908   89.6282   13.0055 N.2     1  UNL1       -0.0345
     14 C          64.2357   89.5696   14.3061 C.2     1  UNL1        0.3649
     15 N          64.4647   88.1263   14.6446 N.2     1  UNL1       -0.0380
     16 C          63.8614   87.2929   13.5531 C.2     1  UNL1        0.2184
     17 C          63.7823   85.8087   13.3508 C.3     1  UNL1        0.1186
     18 N          62.8641   80.8001   11.5286 N.3     1  UNL1       -0.2698
     19 C          62.3098   81.4174   12.7783 C.3     1  UNL1        0.0938
     20 C          62.3889   82.9016   12.9806 C.3     1  UNL1        0.1079
     21 N          63.0223   83.7685   11.9331 N.pl3   1  UNL1       -0.3076
     22 C          63.5765   83.1513   10.6835 C.3     1  UNL1        0.1079
     23 C          63.4975   81.6670   10.4812 C.3     1  UNL1        0.0938
     24 C          62.7146   78.7508    9.9387 C.3     1  UNL1        0.0188
     25 C          62.7850   79.3159   11.3264 C.3     1  UNL1        0.0722
     26 N          66.6287   91.1722   13.4661 N.pl3   1  UNL1       -0.3329
     27 H          66.8376   90.2273   13.2851 H       1  UNL1        0.1466
     28 C          67.0682   92.2352   12.5034 C.3     1  UNL1        0.1211
     29 C          66.1012   92.7788   11.4937 C.3     1  UNL1        0.1522
     30 O          64.9119   91.9637   11.0796 O.3     1  UNL1       -0.3783
     31 H          64.9177   91.1185   11.5554 H       1  UNL1        0.2109
     32 C          66.3235   94.1374   10.8981 C.ar    1  UNL1        0.0067
     33 C          66.0700   95.3668   11.7191 C.ar    1  UNL1       -0.0018
     34 C          66.2923   96.7255   11.1235 C.ar    1  UNL1        0.0006
     35 C          66.7680   96.8546    9.7068 C.ar    1  UNL1        0.0114
     36 C          67.0215   95.6251    8.8858 C.ar    1  UNL1        0.0574
     37 CL         67.4972   95.7543    7.4691 Cl      1  UNL1       -0.0823
     38 C          66.7992   94.2665    9.4814 C.ar    1  UNL1        0.0095
@<TRIPOS>BOND
     1    24    25    1
     2    25    18    1
     3    18    19    1
     4    19    20    1
     5    20    21    1
     6    21     8    1
     7     8     9    2
     8     9    10    1
     9    10    11    1
    10    10    12    2
    11    12    13    1
    12    13    14    2
    13    14     1    1
    14     1     2    1
    15     2    26    1
    16    26    28    1
    17    28    29    1
    18    29    30    1
    19    29    32    1
    20    32    33   ar
    21    33    34   ar
    22    34    35   ar
    23    35    36   ar
    24    36    37    1
    25    36    38   ar
    26     2     3    2
    27     3     4    1
    28     4     5    2
    29     5     6    1
    30     6     7    2
    31    14    15    1
    32    15    16    2
    33    16    17    1
    34    21    22    1
    35    22    23    1
    36    23    18    1
    37    17     8    1
    38    16    12    1
    39     6     1    1
    40    38    32   ar
    41    26    27    1
    42    30    31    1
@<TRIPOS>MOLECULE
*****
 38 42 0 0 0
SMALL
GASTEIGER

@<TRIPOS>ATOM
      1 C          63.0993   83.6397   13.6474 C.3     1  UNL1        0.2250
      2 C          62.5617   83.2606   12.2994 C.2     1  UNL1        0.0436
      3 C          62.2911   81.8207   11.9777 C.2     1  UNL1        0.0288
      4 C          62.5580   80.7599   13.0040 C.2     1  UNL1        0.0896
      5 N          63.0956   81.1389   14.3521 N.am    1  UNL1       -0.1770
      6 C          63.3663   82.5788   14.6738 C.2     1  UNL1        0.2627
      7 O          63.9039   82.9579   16.0218 O.2     1  UNL1       -0.2719
      8 C          64.5157   89.8956   14.3263 C.2     1  UNL1        0.0332
      9 C          63.9950   89.6828   15.7167 C.2     1  UNL1        0.0101
     10 C          63.5002   88.3294   16.1334 C.2     1  UNL1        0.0255
     11 C          62.9795   88.1166   17.5240 C.3     1  UNL1        0.0351
     12 C          63.5262   87.1888   15.1595 C.2     1  UNL1        0.2278
     13 N          63.1078   85.7537   15.2833 N.2     1  UNL1       -0.0345
     14 C          63.3700   85.0795   13.9692 C.2     1  UNL1        0.3649
     15 N          63.9504   86.0980   13.0333 N.2     1  UNL1       -0.0380
     16 C          64.0469   87.4017   13.7690 C.2     1  UNL1        0.2184
     17 C          64.5417   88.7550   13.3524 C.3     1  UNL1        0.1186
     18 N          66.0000   93.9556   13.0760 N.3     1  UNL1       -0.2698
     19 C          65.2373   93.1041   12.1048 C.3     1  UNL1        0.0938
     20 C          64.7426   91.7507   12.5216 C.3     1  UNL1        0.1079
     21 N          65.0105   91.2490   13.9095 N.pl3   1  UNL1       -0.3076
     22 C          65.7731   92.1005   14.8807 C.3     1  UNL1        0.1079
     23 C          66.2679   93.4539   14.4640 C.3     1  UNL1        0.0938
     24 C          66.0926   95.8782   11.3311 C.3     1  UNL1        0.0188
     25 C          66.4947   95.3090   12.6593 C.3     1  UNL1        0.0722
     26 N          62.2948   84.3214   11.2730 N.pl3   1  UNL1       -0.3329
     27 H          61.5703   84.9727   11.4152 H       1  UNL1        0.1466
     28 C          63.1316   84.3899   10.0300 C.3     1  UNL1        0.1211
     29 C          62.6495   85.1709    8.8435 C.3     1  UNL1        0.1522
     30 O          62.9932   84.7157    7.4562 O.3     1  UNL1       -0.3783
     31 H          63.5275   83.9076    7.5040 H       1  UNL1        0.2109
     32 C          61.8239   86.4070    9.0444 C.ar    1  UNL1        0.0067
     33 C          60.4037   86.4467    8.5633 C.ar    1  UNL1       -0.0018
     34 C          59.5781   87.6828    8.7643 C.ar    1  UNL1        0.0006
     35 C          60.1727   88.8792    9.4463 C.ar    1  UNL1        0.0114
     36 C          61.5928   88.8395    9.9274 C.ar    1  UNL1        0.0574
     37 CL         62.1874   90.0358   10.6094 Cl      1  UNL1       -0.0823
     38 C          62.4184   87.6034    9.7265 C.ar    1  UNL1        0.0095
@<TRIPOS>BOND
     1    24    25    1
     2    25    18    1
     3    18    19    1
     4    19    20    1
     5    20    21    1
     6    21     8    1
     7     8     9    2
     8     9    10    1
     9    10    11    1
    10    10    12    2
    11    12    13    1
    12    13    14    2
    13    14     1    1
    14     1     2    1
    15     2    26    1
    16    26    28    1
    17    28    29    1
    18    29    30    1
    19    29    32    1
    20    32    33   ar
    21    33    34   ar
    22    34    35   ar
    23    35    36   ar
    24    36    37    1
    25    36    38   ar
    26     2     3    2
    27     3     4    1
    28     4     5    2
    29     5     6    1
    30     6     7    2
    31    14    15    1
    32    15    16    2
    33    16    17    1
    34    21    22    1
    35    22    23    1
    36    23    18    1
    37    17     8    1
    38    16    12    1
    39     6     1    1
    40    38    32   ar
    41    26    27    1
    42    30    31    1
@<TRIPOS>MOLECULE
*****
 38 42 0 0 0
SMALL
GASTEIGER

@<TRIPOS>ATOM
      1 C          61.1838   87.8138    9.6067 C.3     1  UNL1        0.2250
      2 C          61.4370   86.4870    8.9543 C.2     1  UNL1        0.0436
      3 C          60.5174   85.9935    7.8768 C.2     1  UNL1        0.0288
      4 C          59.3447   86.8266    7.4518 C.2     1  UNL1        0.0896
      5 N          59.0915   88.1533    8.1042 N.am    1  UNL1       -0.1770
      6 C          60.0111   88.6469    9.1816 C.2     1  UNL1        0.2627
      7 O          59.7579   89.9736    9.8340 O.2     1  UNL1       -0.2719
      8 C          65.2218   90.5559   13.8230 C.2     1  UNL1        0.0332
      9 C          65.0001   89.2881   14.5932 C.2     1  UNL1        0.0101
     10 C          64.0928   88.2266   14.0453 C.2     1  UNL1        0.0255
     11 C          63.8710   86.9587   14.8155 C.3     1  UNL1        0.0351
     12 C          63.4074   88.4331   12.7271 C.2     1  UNL1        0.2278
     13 N          62.4644   87.5718   11.9405 N.2     1  UNL1       -0.0345
     14 C          62.1033   88.3074   10.6841 C.2     1  UNL1        0.3649
     15 N          62.8232   89.6233   10.6942 N.2     1  UNL1       -0.0380
     16 C          63.6292   89.7010   11.9569 C.2     1  UNL1        0.2184
     17 C          64.5364   90.7624   12.5049 C.3     1  UNL1        0.1186
     18 N          67.9436   93.7403   15.4669 N.3     1  UNL1       -0.2698
     19 C          68.0334   92.3358   15.9857 C.3     1  UNL1        0.0938
     20 C          67.1262   91.2744   15.4378 C.3     1  UNL1        0.1079
     21 N          66.1291   91.6175   14.3710 N.pl3   1  UNL1       -0.3076
     22 C          66.0392   93.0219   13.8521 C.3     1  UNL1        0.1079
     23 C          66.9465   94.0835   14.4001 C.3     1  UNL1        0.0938
     24 C          70.3317   94.5692   16.0665 C.3     1  UNL1        0.0188
     25 C          68.8508   94.8018   16.0148 C.3     1  UNL1        0.0722
     26 N          62.6097   85.6538    9.3792 N.pl3   1  UNL1       -0.3329
     27 H          63.5060   86.0574    9.4345 H       1  UNL1        0.1466
     28 C          62.4168   84.2059    9.7200 C.3     1  UNL1        0.1211
     29 C          63.3976   83.5091   10.6158 C.3     1  UNL1        0.1522
     30 O          64.8421   83.4208   10.2213 O.3     1  UNL1       -0.3783
     31 H          64.9714   83.8611    9.3667 H       1  UNL1        0.2109
     32 C          62.9340   82.9007   11.9061 C.ar    1  UNL1        0.0067
     33 C          62.5405   81.4541   11.9545 C.ar    1  UNL1       -0.0018
     34 C          62.0768   80.8457   13.2448 C.ar    1  UNL1        0.0006
     35 C          62.0067   81.6840   14.4868 C.ar    1  UNL1        0.0114
     36 C          62.4002   83.1306   14.4383 C.ar    1  UNL1        0.0574
     37 CL         62.3301   83.9688   15.6803 Cl      1  UNL1       -0.0823
     38 C          62.8638   83.7390   13.1480 C.ar    1  UNL1        0.0095
@<TRIPOS>BOND
     1    24    25    1
     2    25    18    1
     3    18    19    1
     4    19    20    1
     5    20    21    1
     6    21     8    1
     7     8     9    2
     8     9    10    1
     9    10    11    1
    10    10    12    2
    11    12    13    1
    12    13    14    2
    13    14     1    1
    14     1     2    1
    15     2    26    1
    16    26    28    1
    17    28    29    1
    18    29    30    1
    19    29    32    1
    20    32    33   ar
    21    33    34   ar
    22    34    35   ar
    23    35    36   ar
    24    36    37    1
    25    36    38   ar
    26     2     3    2
    27     3     4    1
    28     4     5    2
    29     5     6    1
    30     6     7    2
    31    14    15    1
    32    15    16    2
    33    16    17    1
    34    21    22    1
    35    22    23    1
    36    23    18    1
    37    17     8    1
    38    16    12    1
    39     6     1    1
    40    38    32   ar
    41    26    27    1
    42    30    31    1
@<TRIPOS>MOLECULE
*****
 38 42 0 0 0
SMALL
GASTEIGER

@<TRIPOS>ATOM
      1 C          61.1615   88.1300    9.7765 C.3     1  UNL1        0.2250
      2 C          61.1920   86.7067    9.3041 C.2     1  UNL1        0.0436
      3 C          60.2411   86.2500    8.2376 C.2     1  UNL1        0.0288
      4 C          59.2598   87.2166    7.6436 C.2     1  UNL1        0.0896
      5 N          59.2293   88.6399    8.1160 N.am    1  UNL1       -0.1770
      6 C          60.1802   89.0966    9.1825 C.2     1  UNL1        0.2627
      7 O          60.1497   90.5199    9.6550 O.2     1  UNL1       -0.2719
      8 C          65.3477   90.7135   13.9484 C.2     1  UNL1        0.0332
      9 C          65.0968   89.4483   14.7140 C.2     1  UNL1        0.0101
     10 C          64.1479   88.4200   14.1733 C.2     1  UNL1        0.0255
     11 C          63.8970   87.1548   14.9390 C.3     1  UNL1        0.0351
     12 C          63.4500   88.6571   12.8669 C.2     1  UNL1        0.2278
     13 N          62.4681   87.8317   12.0892 N.2     1  UNL1       -0.0345
     14 C          62.1123   88.5868   10.8430 C.2     1  UNL1        0.3649
     15 N          62.8742   89.8789   10.8504 N.2     1  UNL1       -0.0380
     16 C          63.7009   89.9223   12.1012 C.2     1  UNL1        0.2184
     17 C          64.6498   90.9505   12.6420 C.3     1  UNL1        0.1186
     18 N          68.1943   93.7983   15.5704 N.3     1  UNL1       -0.2698
     19 C          67.1429   94.1965   14.5775 C.3     1  UNL1        0.0938
     20 C          66.1940   93.1683   14.0368 C.3     1  UNL1        0.1079
     21 N          66.2966   91.7418   14.4891 N.pl3   1  UNL1       -0.3076
     22 C          67.3480   91.3435   15.4819 C.3     1  UNL1        0.1079
     23 C          68.2969   92.3718   16.0227 C.3     1  UNL1        0.0938
     24 C          70.6115   94.7160   15.8251 C.3     1  UNL1        0.0188
     25 C          69.1432   94.8266   16.1111 C.3     1  UNL1        0.0722
     26 N          62.1732   85.7401    9.8980 N.pl3   1  UNL1       -0.3329
     27 H          63.0776   85.6605    9.5173 H       1  UNL1        0.1466
     28 C          61.7765   84.8948   11.0719 C.3     1  UNL1        0.1211
     29 C          62.8256   84.1752   11.8666 C.3     1  UNL1        0.1522
     30 O          63.9413   84.9462   12.5076 O.3     1  UNL1       -0.3783
     31 H          63.8359   85.8904   12.3120 H       1  UNL1        0.2109
     32 C          62.7591   82.6846   12.0202 C.ar    1  UNL1        0.0067
     33 C          62.5117   82.0800   13.3704 C.ar    1  UNL1       -0.0018
     34 C          62.4452   80.5894   13.5240 C.ar    1  UNL1        0.0006
     35 C          62.6262   79.7032   12.3273 C.ar    1  UNL1        0.0114
     36 C          62.8736   80.3078   10.9771 C.ar    1  UNL1        0.0574
     37 CL         63.0546   79.4217    9.7804 Cl      1  UNL1       -0.0823
     38 C          62.9401   81.7985   10.8235 C.ar    1  UNL1        0.0095
@<TRIPOS>BOND
     1    24    25    1
     2    25    18    1
     3    18    19    1
     4    19    20    1
     5    20    21    1
     6    21     8    1
     7     8     9    2
     8     9    10    1
     9    10    11    1
    10    10    12    2
    11    12    13    1
    12    13    14    2
    13    14     1    1
    14     1     2    1
    15     2    26    1
    16    26    28    1
    17    28    29    1
    18    29    30    1
    19    29    32    1
    20    32    33   ar
    21    33    34   ar
    22    34    35   ar
    23    35    36   ar
    24    36    37    1
    25    36    38   ar
    26     2     3    2
    27     3     4    1
    28     4     5    2
    29     5     6    1
    30     6     7    2
    31    14    15    1
    32    15    16    2
    33    16    17    1
    34    21    22    1
    35    22    23    1
    36    23    18    1
    37    17     8    1
    38    16    12    1
    39     6     1    1
    40    38    32   ar
    41    26    27    1
    42    30    31    1
@<TRIPOS>MOLECULE
*****
 38 42 0 0 0
SMALL
GASTEIGER

@<TRIPOS>ATOM
      1 C          65.3559   91.6757   14.1539 C.3     1  UNL1        0.2250
      2 C          65.3269   92.1774   12.7406 C.2     1  UNL1        0.0436
      3 C          65.8267   93.5558   12.4237 C.2     1  UNL1        0.0288
      4 C          66.3554   94.4324   13.5201 C.2     1  UNL1        0.0896
      5 N          66.3844   93.9307   14.9333 N.am    1  UNL1       -0.1770
      6 C          65.8846   92.5523   15.2502 C.2     1  UNL1        0.2627
      7 O          65.9136   92.0505   16.6635 O.2     1  UNL1       -0.2719
      8 C          63.4242   85.5582   14.8231 C.2     1  UNL1        0.0332
      9 C          63.0191   86.0197   16.1916 C.2     1  UNL1        0.0101
     10 C          63.2493   87.4442   16.6015 C.2     1  UNL1        0.0255
     11 C          62.8442   87.9057   17.9700 C.3     1  UNL1        0.0351
     12 C          63.8846   88.4071   15.6427 C.2     1  UNL1        0.2278
     13 N          64.2347   89.8606   15.7642 N.2     1  UNL1       -0.0345
     14 C          64.8562   90.2973   14.4708 C.2     1  UNL1        0.3649
     15 N          64.8902   89.1138   13.5499 N.2     1  UNL1       -0.0380
     16 C          64.2897   87.9455   14.2742 C.2     1  UNL1        0.2184
     17 C          64.0595   86.5211   13.8644 C.3     1  UNL1        0.1186
     18 N          62.7334   81.2849   13.5936 N.3     1  UNL1       -0.2698
     19 C          61.8400   81.9255   14.6141 C.3     1  UNL1        0.0938
     20 C          62.0702   83.3499   15.0239 C.3     1  UNL1        0.1079
     21 N          63.1939   84.1337   14.4132 N.pl3   1  UNL1       -0.3076
     22 C          64.0874   83.4931   13.3928 C.3     1  UNL1        0.1079
     23 C          63.8571   82.0687   12.9830 C.3     1  UNL1        0.0938
     24 C          62.6689   79.4568   11.7487 C.3     1  UNL1        0.0188
     25 C          62.5032   79.8604   13.1838 C.3     1  UNL1        0.0722
     26 N          64.7982   91.3009   11.6442 N.pl3   1  UNL1       -0.3329
     27 H          65.4099   90.9471   10.9586 H       1  UNL1        0.1466
     28 C          63.3376   90.9634   11.5922 C.3     1  UNL1        0.1211
     29 C          62.6815   90.6727   10.2750 C.3     1  UNL1        0.1522
     30 O          62.8078   91.6482    9.1426 O.3     1  UNL1       -0.3783
     31 H          63.3415   92.4066    9.4272 H       1  UNL1        0.2109
     32 C          61.8990   89.4064   10.0903 C.ar    1  UNL1        0.0067
     33 C          60.7318   89.3766    9.1487 C.ar    1  UNL1       -0.0018
     34 C          59.9492   88.1103    8.9639 C.ar    1  UNL1        0.0006
     35 C          60.3339   86.8737    9.7208 C.ar    1  UNL1        0.0114
     36 C          61.5011   86.9035   10.6624 C.ar    1  UNL1        0.0574
     37 CL         61.8858   85.6669   11.4193 Cl      1  UNL1       -0.0823
     38 C          62.2837   88.1698   10.8471 C.ar    1  UNL1        0.0095
@<TRIPOS>BOND
     1    24    25    1
     2    25    18    1
     3    18    19    1
     4    19    20    1
     5    20    21    1
     6    21     8    1
     7     8     9    2
     8     9    10    1
     9    10    11    1
    10    10    12    2
    11    12    13    1
    12    13    14    2
    13    14     1    1
    14     1     2    1
    15     2    26    1
    16    26    28    1
    17    28    29    1
    18    29    30    1
    19    29    32    1
    20    32    33   ar
    21    33    34   ar
    22    34    35   ar
    23    35    36   ar
    24    36    37    1
    25    36    38   ar
    26     2     3    2
    27     3     4    1
    28     4     5    2
    29     5     6    1
    30     6     7    2
    31    14    15    1
    32    15    16    2
    33    16    17    1
    34    21    22    1
    35    22    23    1
    36    23    18    1
    37    17     8    1
    38    16    12    1
    39     6     1    1
    40    38    32   ar
    41    26    27    1
    42    30    31    1
@<TRIPOS>MOLECULE
*****
 38 42 0 0 0
SMALL
GASTEIGER

@<TRIPOS>ATOM
      1 C          64.4541   94.3730   -4.6734 C.3     1  UNL1        0.2250
      2 C          64.1376   95.6111   -5.4588 C.2     1  UNL1        0.0436
      3 C          64.5372   95.7066   -6.9015 C.2     1  UNL1        0.0288
      4 C          65.2532   94.5641   -7.5587 C.2     1  UNL1        0.0896
      5 N          65.5697   93.3260   -6.7733 N.am    1  UNL1       -0.1770
      6 C          65.1701   93.2305   -5.3306 C.2     1  UNL1        0.2627
      7 O          65.4867   91.9924   -4.5452 O.2     1  UNL1       -0.2719
      8 C          62.2585   93.4224    1.3165 C.2     1  UNL1        0.0332
      9 C          63.2367   94.5065    1.6593 C.2     1  UNL1        0.0101
     10 C          64.0719   95.1315    0.5813 C.2     1  UNL1        0.0255
     11 C          65.0501   96.2158    0.9242 C.3     1  UNL1        0.0351
     12 C          63.9288   94.6722   -0.8394 C.2     1  UNL1        0.2278
     13 N          64.6111   95.0983   -2.1055 N.2     1  UNL1       -0.0345
     14 C          64.0545   94.2773   -3.2308 C.2     1  UNL1        0.3649
     15 N          63.0283   93.3439   -2.6602 N.2     1  UNL1       -0.0380
     16 C          62.9506   93.5880   -1.1822 C.2     1  UNL1        0.2184
     17 C          62.1154   92.9631   -0.1042 C.3     1  UNL1        0.1186
     18 N          59.7529   91.5474    4.5502 N.3     1  UNL1       -0.2698
     19 C          59.1167   92.4558    3.5402 C.3     1  UNL1        0.0938
     20 C          59.9519   93.0807    2.4623 C.3     1  UNL1        0.1079
     21 N          61.4233   92.7973    2.3945 N.pl3   1  UNL1       -0.3076
     22 C          62.0595   91.8891    3.4044 C.3     1  UNL1        0.1079
     23 C          61.2243   91.2641    4.4824 C.3     1  UNL1        0.0938
     24 C          59.3832   89.6672    6.3046 C.3     1  UNL1        0.0188
     25 C          58.9177   90.9225    5.6281 C.3     1  UNL1        0.0722
     26 N          63.4215   96.7536   -4.8017 N.pl3   1  UNL1       -0.3329
     27 H          63.9327   97.4416   -4.3174 H       1  UNL1        0.1466
     28 C          61.9267   96.8479   -4.8824 C.3     1  UNL1        0.1211
     29 C          61.0751   95.7330   -4.3514 C.3     1  UNL1        0.1522
     30 O          60.7080   94.5813   -5.2396 O.3     1  UNL1       -0.3783
     31 H          61.0992   94.7125   -6.1175 H       1  UNL1        0.2109
     32 C          60.5907   95.7698   -2.9323 C.ar    1  UNL1        0.0067
     33 C          61.1485   96.7812   -1.9753 C.ar    1  UNL1       -0.0018
     34 C          60.6641   96.8181   -0.5562 C.ar    1  UNL1        0.0006
     35 C          59.6218   95.8434   -0.0940 C.ar    1  UNL1        0.0114
     36 C          59.0639   94.8320   -1.0509 C.ar    1  UNL1        0.0574
     37 CL         58.0216   93.8574   -0.5887 Cl      1  UNL1       -0.0823
     38 C          59.5484   94.7952   -2.4700 C.ar    1  UNL1        0.0095
@<TRIPOS>BOND
     1    24    25    1
     2    25    18    1
     3    18    19    1
     4    19    20    1
     5    20    21    1
     6    21     8    1
     7     8     9    2
     8     9    10    1
     9    10    11    1
    10    10    12    2
    11    12    13    1
    12    13    14    2
    13    14     1    1
    14     1     2    1
    15     2    26    1
    16    26    28    1
    17    28    29    1
    18    29    30    1
    19    29    32    1
    20    32    33   ar
    21    33    34   ar
    22    34    35   ar
    23    35    36   ar
    24    36    37    1
    25    36    38   ar
    26     2     3    2
    27     3     4    1
    28     4     5    2
    29     5     6    1
    30     6     7    2
    31    14    15    1
    32    15    16    2
    33    16    17    1
    34    21    22    1
    35    22    23    1
    36    23    18    1
    37    17     8    1
    38    16    12    1
    39     6     1    1
    40    38    32   ar
    41    26    27    1
    42    30    31    1
@<TRIPOS>MOLECULE
*****
 38 42 0 0 0
SMALL
GASTEIGER

@<TRIPOS>ATOM
      1 C          60.4496   94.8941   -3.7238 C.3     1  UNL1        0.2250
      2 C          61.5403   95.7462   -4.3020 C.2     1  UNL1        0.0436
      3 C          61.5929   95.9961   -5.7802 C.2     1  UNL1        0.0288
      4 C          60.5549   95.3939   -6.6801 C.2     1  UNL1        0.0896
      5 N          59.4642   94.5418   -6.1019 N.am    1  UNL1       -0.1770
      6 C          59.4116   94.2919   -4.6238 C.2     1  UNL1        0.2627
      7 O          58.3209   93.4398   -4.0456 O.2     1  UNL1       -0.2719
      8 C          59.9918   93.1250    2.4619 C.2     1  UNL1        0.0332
      9 C          60.4575   94.5280    2.7158 C.2     1  UNL1        0.0101
     10 C          60.7360   95.4461    1.5627 C.2     1  UNL1        0.0255
     11 C          61.2018   96.8492    1.8166 C.3     1  UNL1        0.0351
     12 C          60.5488   94.9610    0.1557 C.2     1  UNL1        0.2278
     13 N          60.7428   95.6323   -1.1716 N.2     1  UNL1       -0.0345
     14 C          60.3969   94.6441   -2.2457 C.2     1  UNL1        0.3649
     15 N          59.9892   93.3621   -1.5824 N.2     1  UNL1       -0.0380
     16 C          60.0830   93.5579   -0.0982 C.2     1  UNL1        0.2184
     17 C          59.8045   92.6399    1.0550 C.3     1  UNL1        0.1186
     18 N          59.1564   90.3708    5.9213 N.3     1  UNL1       -0.2698
     19 C          60.5672   90.5918    5.4622 C.3     1  UNL1        0.0938
     20 C          60.8457   91.5098    4.3091 C.3     1  UNL1        0.1079
     21 N          59.7133   92.2070    3.6151 N.pl3   1  UNL1       -0.3076
     22 C          58.3025   91.9861    4.0741 C.3     1  UNL1        0.1079
     23 C          58.0240   91.0680    5.2273 C.3     1  UNL1        0.0938
     24 C          59.9972   89.0159    7.9724 C.3     1  UNL1        0.0188
     25 C          58.8780   89.4528    7.0744 C.3     1  UNL1        0.0722
     26 N          62.5783   96.3484   -3.4022 N.pl3   1  UNL1       -0.3329
     27 H          62.3623   97.1452   -2.8658 H       1  UNL1        0.1466
     28 C          63.9454   95.7367   -3.3196 C.3     1  UNL1        0.1211
     29 C          64.1751   94.5265   -2.4636 C.3     1  UNL1        0.1522
     30 O          64.2958   93.1720   -3.0967 O.3     1  UNL1       -0.3783
     31 H          64.2026   93.2553   -4.0587 H       1  UNL1        0.2109
     32 C          64.2841   94.6708   -0.9746 C.ar    1  UNL1        0.0067
     33 C          64.8010   95.9475   -0.3806 C.ar    1  UNL1       -0.0018
     34 C          64.9100   96.0918    1.1085 C.ar    1  UNL1        0.0006
     35 C          64.5020   94.9594    2.0036 C.ar    1  UNL1        0.0114
     36 C          63.9851   93.6827    1.4096 C.ar    1  UNL1        0.0574
     37 CL         63.5771   92.5503    2.3047 Cl      1  UNL1       -0.0823
     38 C          63.8761   93.5384   -0.0795 C.ar    1  UNL1        0.0095
@<TRIPOS>BOND
     1    24    25    1
     2    25    18    1
     3    18    19    1
     4    19    20    1
     5    20    21    1
     6    21     8    1
     7     8     9    2
     8     9    10    1
     9    10    11    1
    10    10    12    2
    11    12    13    1
    12    13    14    2
    13    14     1    1
    14     1     2    1
    15     2    26    1
    16    26    28    1
    17    28    29    1
    18    29    30    1
    19    29    32    1
    20    32    33   ar
    21    33    34   ar
    22    34    35   ar
    23    35    36   ar
    24    36    37    1
    25    36    38   ar
    26     2     3    2
    27     3     4    1
    28     4     5    2
    29     5     6    1
    30     6     7    2
    31    14    15    1
    32    15    16    2
    33    16    17    1
    34    21    22    1
    35    22    23    1
    36    23    18    1
    37    17     8    1
    38    16    12    1
    39     6     1    1
    40    38    32   ar
    41    26    27    1
    42    30    31    1
@<TRIPOS>MOLECULE
*****
 38 42 0 0 0
SMALL
GASTEIGER

@<TRIPOS>ATOM
      1 C          64.1554   90.9852   14.8646 C.3     1  UNL1        0.2250
      2 C          65.3869   91.7712   14.5245 C.2     1  UNL1        0.0436
      3 C          66.1505   92.4746   15.6072 C.2     1  UNL1        0.0288
      4 C          65.6826   92.3920   17.0300 C.2     1  UNL1        0.0896
      5 N          64.4511   91.6060   17.3701 N.am    1  UNL1       -0.1770
      6 C          63.6876   90.9026   16.2873 C.2     1  UNL1        0.2627
      7 O          62.4561   90.1166   16.6274 O.2     1  UNL1       -0.2719
      8 C          61.5144   87.6067   10.0465 C.2     1  UNL1        0.0332
      9 C          60.2741   88.3555   10.4348 C.2     1  UNL1        0.0101
     10 C          60.3152   89.3391   11.5666 C.2     1  UNL1        0.0255
     11 C          59.0747   90.0879   11.9549 C.3     1  UNL1        0.0351
     12 C          61.5966   89.5738   12.3100 C.2     1  UNL1        0.2278
     13 N          61.9395   90.4742   13.4597 N.2     1  UNL1       -0.0345
     14 C          63.3918   90.2818   13.7819 C.2     1  UNL1        0.3649
     15 N          63.9465   89.2626   12.8314 N.2     1  UNL1       -0.0380
     16 C          62.8370   88.8250   11.9217 C.2     1  UNL1        0.2184
     17 C          62.7959   87.8414   10.7899 C.3     1  UNL1        0.1186
     18 N          61.3911   84.6560    6.6512 N.3     1  UNL1       -0.2698
     19 C          60.1498   85.4020    7.0419 C.3     1  UNL1        0.0938
     20 C          60.1910   86.3856    8.1737 C.3     1  UNL1        0.1079
     21 N          61.4733   86.6231    8.9147 N.pl3   1  UNL1       -0.3076
     22 C          62.7145   85.8771    8.5240 C.3     1  UNL1        0.1079
     23 C          62.6735   84.8934    7.3922 C.3     1  UNL1        0.0938
     24 C          61.7034   84.1129    4.1298 C.3     1  UNL1        0.0188
     25 C          61.3500   83.6724    5.5194 C.3     1  UNL1        0.0722
     26 N          65.8548   91.8539   13.1018 N.pl3   1  UNL1       -0.3329
     27 H          66.5693   91.2562   12.7831 H       1  UNL1        0.1466
     28 C          65.2342   92.8471   12.1646 C.3     1  UNL1        0.1211
     29 C          65.9869   94.0858   11.7787 C.3     1  UNL1        0.1522
     30 O          66.0127   95.2665   12.7035 O.3     1  UNL1       -0.3783
     31 H          65.4974   95.0645   13.5002 H       1  UNL1        0.2109
     32 C          66.7138   94.1439   10.4679 C.ar    1  UNL1        0.0067
     33 C          66.5933   95.3589    9.5966 C.ar    1  UNL1       -0.0018
     34 C          67.3202   95.4170    8.2858 C.ar    1  UNL1        0.0006
     35 C          68.1677   94.2601    7.8462 C.ar    1  UNL1        0.0114
     36 C          68.2883   93.0451    8.7175 C.ar    1  UNL1        0.0574
     37 CL         69.1358   91.8881    8.2780 Cl      1  UNL1       -0.0823
     38 C          67.5614   92.9870   10.0283 C.ar    1  UNL1        0.0095
@<TRIPOS>BOND
     1    24    25    1
     2    25    18    1
     3    18    19    1
     4    19    20    1
     5    20    21    1
     6    21     8    1
     7     8     9    2
     8     9    10    1
     9    10    11    1
    10    10    12    2
    11    12    13    1
    12    13    14    2
    13    14     1    1
    14     1     2    1
    15     2    26    1
    16    26    28    1
    17    28    29    1
    18    29    30    1
    19    29    32    1
    20    32    33   ar
    21    33    34   ar
    22    34    35   ar
    23    35    36   ar
    24    36    37    1
    25    36    38   ar
    26     2     3    2
    27     3     4    1
    28     4     5    2
    29     5     6    1
    30     6     7    2
    31    14    15    1
    32    15    16    2
    33    16    17    1
    34    21    22    1
    35    22    23    1
    36    23    18    1
    37    17     8    1
    38    16    12    1
    39     6     1    1
    40    38    32   ar
    41    26    27    1
    42    30    31    1
@<TRIPOS>MOLECULE
*****
 38 42 0 0 0
SMALL
GASTEIGER

@<TRIPOS>ATOM
      1 C          63.1017   84.3998   11.7613 C.3     1  UNL1        0.2250
      2 C          63.5273   84.5092   13.1955 C.2     1  UNL1        0.0436
      3 C          64.2731   83.3811   13.8446 C.2     1  UNL1        0.0288
      4 C          64.5932   82.1436   13.0596 C.2     1  UNL1        0.0896
      5 N          64.1676   82.0342   11.6254 N.am    1  UNL1       -0.1770
      6 C          63.4219   83.1624   10.9763 C.2     1  UNL1        0.2627
      7 O          62.9963   83.0530    9.5421 O.2     1  UNL1       -0.2719
      8 C          60.2042   89.0245    8.3233 C.2     1  UNL1        0.0332
      9 C          59.6296   89.4104    9.6539 C.2     1  UNL1        0.0101
     10 C          59.9880   88.6265   10.8816 C.2     1  UNL1        0.0255
     11 C          59.4133   89.0125   12.2123 C.3     1  UNL1        0.0351
     12 C          60.9212   87.4566   10.7784 C.2     1  UNL1        0.2278
     13 N          61.4528   86.5031   11.8071 N.2     1  UNL1       -0.0345
     14 C          62.3560   85.5278   11.1121 C.2     1  UNL1        0.3649
     15 N          62.3826   85.8786    9.6539 N.2     1  UNL1       -0.0380
     16 C          61.4958   87.0707    9.4477 C.2     1  UNL1        0.2184
     17 C          61.1374   87.8546    8.2201 C.3     1  UNL1        0.1186
     18 N          59.1290   91.3762    4.6404 N.3     1  UNL1       -0.2698
     19 C          60.5695   91.1684    5.0036 C.3     1  UNL1        0.0938
     20 C          60.9279   90.3845    6.2312 C.3     1  UNL1        0.1079
     21 N          59.8458   89.8084    7.0956 N.pl3   1  UNL1       -0.3076
     22 C          58.4054   90.0162    6.7324 C.3     1  UNL1        0.1079
     23 C          58.0470   90.8001    5.5048 C.3     1  UNL1        0.0938
     24 C          59.8482   92.8126    2.5985 C.3     1  UNL1        0.0188
     25 C          58.7707   92.1601    3.4128 C.3     1  UNL1        0.0722
     26 N          63.2072   85.7466   13.9805 N.pl3   1  UNL1       -0.3329
     27 H          62.2822   85.9210   14.2688 H       1  UNL1        0.1466
     28 C          64.2964   86.7182   14.3263 C.3     1  UNL1        0.1211
     29 C          63.9488   88.0724   14.8695 C.3     1  UNL1        0.1522
     30 O          63.4014   88.2050   16.2598 O.3     1  UNL1       -0.3783
     31 H          63.3355   87.3268   16.6664 H       1  UNL1        0.2109
     32 C          64.1485   89.2941   14.0225 C.ar    1  UNL1        0.0067
     33 C          65.0883   90.3732   14.4723 C.ar    1  UNL1       -0.0018
     34 C          65.2880   91.5949   13.6252 C.ar    1  UNL1        0.0006
     35 C          64.5479   91.7376   12.3283 C.ar    1  UNL1        0.0114
     36 C          63.6081   90.6585   11.8786 C.ar    1  UNL1        0.0574
     37 CL         62.8681   90.8012   10.5817 Cl      1  UNL1       -0.0823
     38 C          63.4084   89.4368   12.7256 C.ar    1  UNL1        0.0095
@<TRIPOS>BOND
     1    24    25    1
     2    25    18    1
     3    18    19    1
     4    19    20    1
     5    20    21    1
     6    21     8    1
     7     8     9    2
     8     9    10    1
     9    10    11    1
    10    10    12    2
    11    12    13    1
    12    13    14    2
    13    14     1    1
    14     1     2    1
    15     2    26    1
    16    26    28    1
    17    28    29    1
    18    29    30    1
    19    29    32    1
    20    32    33   ar
    21    33    34   ar
    22    34    35   ar
    23    35    36   ar
    24    36    37    1
    25    36    38   ar
    26     2     3    2
    27     3     4    1
    28     4     5    2
    29     5     6    1
    30     6     7    2
    31    14    15    1
    32    15    16    2
    33    16    17    1
    34    21    22    1
    35    22    23    1
    36    23    18    1
    37    17     8    1
    38    16    12    1
    39     6     1    1
    40    38    32   ar
    41    26    27    1
    42    30    31    1
