@<TRIPOS>MOLECULE
*****
 43 47 0 0 0
SMALL
GASTEIGER

@<TRIPOS>ATOM
      1 C          61.9555   88.2207   11.0501 C.3     1  UNL1        0.0807
      2 C          62.9285   89.2600   11.5228 C.ar    1  UNL1        0.0375
      3 C          63.2298   90.4515   10.6629 C.ar    1  UNL1        0.0023
      4 C          64.2028   91.4907   11.1356 C.ar    1  UNL1        0.0183
      5 C          64.5041   92.6823   10.2758 C.ar    1  UNL1        0.0118
      6 C          65.4771   93.7214   10.7485 C.ar    1  UNL1        0.0685
      7 C          66.1487   93.5690   12.0810 C.ar    1  UNL1        0.0118
      8 C          65.8474   92.3775   12.9409 C.ar    1  UNL1        0.0199
      9 C          64.8744   91.3383   12.4682 C.ar    1  UNL1        0.0844
     10 N          64.5731   90.1467   13.3280 N.ar    1  UNL1       -0.2119
     11 C          63.6001   89.1076   12.8553 C.ar    1  UNL1        0.2211
     12 C          65.7784   94.9130    9.8886 C.1     1  UNL1        0.1004
     13 N          66.0798   96.1046    9.0288 N.1     1  UNL1       -0.1908
     14 O          63.2988   87.9159   13.7152 O.3     1  UNL1       -0.4563
     15 C          64.3972   87.8535   14.7347 C.3     1  UNL1        0.2542
     16 C          62.4564   86.9617   10.4069 C.ar    1  UNL1        0.0213
     17 C          62.8699   86.9693    8.9650 C.ar    1  UNL1       -0.0007
     18 C          63.3709   85.7102    8.3218 C.ar    1  UNL1        0.0030
     19 C          63.4584   84.4435    9.1204 C.ar    1  UNL1        0.0400
     20 C          63.0450   84.4359   10.5623 C.ar    1  UNL1        0.1721
     21 C          62.5440   85.6950   11.2055 C.ar    1  UNL1        0.1687
     22 O          62.1306   85.6874   12.6474 O.3     1  UNL1       -0.4687
     23 C          62.2181   84.4207   13.4460 C.3     1  UNL1        0.2526
     24 C          62.7191   83.1616   12.8028 C.3     1  UNL1        0.2526
     25 O          63.1325   83.1692   11.3610 O.3     1  UNL1       -0.4684
     26 C          60.4815   88.4407   11.2206 C.3     1  UNL1        0.1162
     27 O          60.6846   88.6617   12.6903 O.3     1  UNL1       -0.3820
     28 H          59.8297   88.8434   13.1111 H       1  UNL1        0.2107
     29 C          60.0067   89.1715    7.3489 C.ar    1  UNL1        0.2272
     30 C          60.2098   89.3925    8.8186 C.ar    1  UNL1        0.0559
     31 C          60.2785   88.2196    9.7510 C.ar    1  UNL1        0.0117
     32 C          60.1441   86.8256    9.2137 C.ar    1  UNL1        0.0559
     33 C          59.9411   86.6045    7.7441 C.ar    1  UNL1        0.2272
     34 N          59.8724   87.7775    6.8117 N.ar    1  UNL1       -0.1767
     35 C          58.7138   90.5657    5.5785 C.3     1  UNL1        0.2542
     36 O          59.9380   90.3445    6.4165 O.3     1  UNL1       -0.4561
     37 O          59.8067   85.2104    7.2069 O.3     1  UNL1       -0.4561
     38 C          60.9199   84.6057    6.4037 C.3     1  UNL1        0.2542
     39 C          59.0076   88.6606   11.3912 C.3     1  UNL1        0.0491
     40 C          58.4939   89.4055   12.5875 C.3     1  UNL1        0.0750
     41 N          57.9648   88.6505   13.7708 N.3     1  UNL1       -0.2702
     42 C          58.7555   88.6023   15.0444 C.3     1  UNL1        0.0897
     43 C          56.6448   87.9437   13.6804 C.3     1  UNL1        0.0897
@<TRIPOS>BOND
     1    35    36    1
     2    36    29    1
     3    29    30   ar
     4    30    31   ar
     5    31    26    1
     6    26    27    1
     7    26    39    1
     8    39    40    1
     9    40    41    1
    10    41    42    1
    11    41    43    1
    12    26     1    1
    13     1     2    1
    14     2     3   ar
    15     3     4   ar
    16     4     5   ar
    17     5     6   ar
    18     6    12    1
    19    12    13    3
    20     6     7   ar
    21     7     8   ar
    22     8     9   ar
    23     9    10   ar
    24    10    11   ar
    25    11    14    1
    26    14    15    1
    27     1    16    1
    28    16    17   ar
    29    17    18   ar
    30    18    19   ar
    31    19    20   ar
    32    20    21   ar
    33    21    22    1
    34    22    23    1
    35    23    24    1
    36    24    25    1
    37    31    32   ar
    38    32    33   ar
    39    33    37    1
    40    37    38    1
    41    33    34   ar
    42    34    29   ar
    43    11     2   ar
    44    21    16   ar
    45     9     4   ar
    46    25    20    1
    47    27    28    1
@<TRIPOS>MOLECULE
*****
 43 47 0 0 0
SMALL
GASTEIGER

@<TRIPOS>ATOM
      1 C          61.9558   88.2303   11.0478 C.3     1  UNL1        0.0807
      2 C          62.9291   89.2690   11.5211 C.ar    1  UNL1        0.0375
      3 C          63.2317   90.4604   10.6615 C.ar    1  UNL1        0.0023
      4 C          64.2050   91.4990   11.1349 C.ar    1  UNL1        0.0183
      5 C          64.5075   92.6904   10.2752 C.ar    1  UNL1        0.0118
      6 C          65.4807   93.7290   10.7486 C.ar    1  UNL1        0.0685
      7 C          66.1514   93.5762   12.0816 C.ar    1  UNL1        0.0118
      8 C          65.8488   92.3848   12.9413 C.ar    1  UNL1        0.0199
      9 C          64.8756   91.3462   12.4679 C.ar    1  UNL1        0.0844
     10 N          64.5729   90.1548   13.3275 N.ar    1  UNL1       -0.2119
     11 C          63.5997   89.1162   12.8542 C.ar    1  UNL1        0.2211
     12 C          65.7834   94.9205    9.8890 C.1     1  UNL1        0.1004
     13 N          66.0860   96.1119    9.0294 N.1     1  UNL1       -0.1908
     14 O          63.2971   87.9247   13.7138 O.3     1  UNL1       -0.4563
     15 C          64.4009   87.8551   14.7270 C.3     1  UNL1        0.2542
     16 C          62.4565   86.9722   10.4024 C.ar    1  UNL1        0.0213
     17 C          62.8700   86.9823    8.9606 C.ar    1  UNL1       -0.0007
     18 C          63.3706   85.7241    8.3151 C.ar    1  UNL1        0.0030
     19 C          63.4577   84.4560    9.1115 C.ar    1  UNL1        0.0400
     20 C          63.0441   84.4460   10.5534 C.ar    1  UNL1        0.1721
     21 C          62.5435   85.7041   11.1988 C.ar    1  UNL1        0.1687
     22 O          62.1300   85.6941   12.6406 O.3     1  UNL1       -0.4687
     23 C          62.2171   84.4259   13.4370 C.3     1  UNL1        0.2526
     24 C          62.7177   83.1678   12.7916 C.3     1  UNL1        0.2526
     25 O          63.1312   83.1779   11.3498 O.3     1  UNL1       -0.4684
     26 C          60.4820   88.4498   11.2198 C.3     1  UNL1        0.1162
     27 O          60.6865   88.6709   12.6893 O.3     1  UNL1       -0.3820
     28 H          59.8320   88.8524   13.1109 H       1  UNL1        0.2107
     29 C          59.9336   86.6137    7.7445 C.ar    1  UNL1        0.2272
     30 C          60.1381   86.8348    9.2140 C.ar    1  UNL1        0.0559
     31 C          60.2775   88.2286    9.7504 C.ar    1  UNL1        0.0117
     32 C          60.2124   89.4013    8.8174 C.ar    1  UNL1        0.0559
     33 C          60.0079   89.1801    7.3479 C.ar    1  UNL1        0.2272
     34 N          59.8685   87.7863    6.8115 N.ar    1  UNL1       -0.1767
     35 C          60.9095   84.6067    6.4142 C.3     1  UNL1        0.2542
     36 O          59.7942   85.2198    7.2081 O.3     1  UNL1       -0.4561
     37 O          59.9428   90.3529    6.4149 O.3     1  UNL1       -0.4561
     38 C          58.7141   90.5850    5.5865 C.3     1  UNL1        0.2542
     39 C          59.0082   88.6693   11.3919 C.3     1  UNL1        0.0491
     40 C          58.4950   89.4074   12.5926 C.3     1  UNL1        0.0750
     41 N          57.9666   88.6458   13.7719 N.3     1  UNL1       -0.2702
     42 C          58.7600   88.5872   15.0435 C.3     1  UNL1        0.0897
     43 C          56.6448   87.9427   13.6796 C.3     1  UNL1        0.0897
@<TRIPOS>BOND
     1    35    36    1
     2    36    29    1
     3    29    30   ar
     4    30    31   ar
     5    31    26    1
     6    26    27    1
     7    26    39    1
     8    39    40    1
     9    40    41    1
    10    41    42    1
    11    41    43    1
    12    26     1    1
    13     1     2    1
    14     2     3   ar
    15     3     4   ar
    16     4     5   ar
    17     5     6   ar
    18     6    12    1
    19    12    13    3
    20     6     7   ar
    21     7     8   ar
    22     8     9   ar
    23     9    10   ar
    24    10    11   ar
    25    11    14    1
    26    14    15    1
    27     1    16    1
    28    16    17   ar
    29    17    18   ar
    30    18    19   ar
    31    19    20   ar
    32    20    21   ar
    33    21    22    1
    34    22    23    1
    35    23    24    1
    36    24    25    1
    37    31    32   ar
    38    32    33   ar
    39    33    37    1
    40    37    38    1
    41    33    34   ar
    42    34    29   ar
    43    11     2   ar
    44    21    16   ar
    45     9     4   ar
    46    25    20    1
    47    27    28    1
@<TRIPOS>MOLECULE
*****
 43 47 0 0 0
SMALL
GASTEIGER

@<TRIPOS>ATOM
      1 C          61.8549   88.1210   10.6785 C.3     1  UNL1        0.0807
      2 C          62.4347   87.1546   11.6684 C.ar    1  UNL1        0.0375
      3 C          62.1290   85.6905   11.5546 C.ar    1  UNL1        0.0023
      4 C          62.7089   84.7241   12.5445 C.ar    1  UNL1        0.0183
      5 C          62.4032   83.2600   12.4307 C.ar    1  UNL1        0.0118
      6 C          62.9830   82.2936   13.4206 C.ar    1  UNL1        0.0685
      7 C          63.8685   82.7914   14.5243 C.ar    1  UNL1        0.0118
      8 C          64.1741   84.2555   14.6382 C.ar    1  UNL1        0.0199
      9 C          63.5943   85.2218   13.6483 C.ar    1  UNL1        0.0844
     10 N          63.8999   86.6860   13.7621 N.ar    1  UNL1       -0.2119
     11 C          63.3201   87.6523   12.7722 C.ar    1  UNL1        0.2211
     12 C          62.6774   80.8295   13.3067 C.1     1  UNL1        0.1004
     13 N          62.3718   79.3654   13.1929 N.1     1  UNL1       -0.1908
     14 O          63.6257   89.1165   12.8860 O.3     1  UNL1       -0.4563
     15 C          63.9767   89.3548   14.3247 C.3     1  UNL1        0.2542
     16 C          60.9621   87.6245    9.5802 C.ar    1  UNL1        0.0213
     17 C          59.5790   88.1845    9.4270 C.ar    1  UNL1       -0.0007
     18 C          58.6862   87.6879    8.3287 C.ar    1  UNL1        0.0030
     19 C          59.1764   86.6314    7.3835 C.ar    1  UNL1        0.0400
     20 C          60.5596   86.0714    7.5367 C.ar    1  UNL1        0.1721
     21 C          61.4523   86.5679    8.6350 C.ar    1  UNL1        0.1687
     22 O          62.8354   86.0079    8.7882 O.3     1  UNL1       -0.4687
     23 C          63.3257   84.9514    7.8430 C.3     1  UNL1        0.2526
     24 C          62.4329   84.4548    6.7447 C.3     1  UNL1        0.2526
     25 O          61.0498   85.0148    6.5915 O.3     1  UNL1       -0.4684
     26 C          62.1679   89.5840   10.7869 C.3     1  UNL1        0.1162
     27 O          63.5256   89.3370   10.1991 O.3     1  UNL1       -0.3820
     28 H          64.0091   90.1758   10.1386 H       1  UNL1        0.2107
     29 C          58.7296   91.3590   11.6688 C.ar    1  UNL1        0.2272
     30 C          60.0874   91.1120   11.0810 C.ar    1  UNL1        0.0559
     31 C          60.8101   89.8309   11.3747 C.ar    1  UNL1        0.0117
     32 C          60.1751   88.7967   12.2563 C.ar    1  UNL1        0.0559
     33 C          58.8173   89.0437   12.8441 C.ar    1  UNL1        0.2272
     34 N          58.0946   90.3248   12.5503 N.ar    1  UNL1       -0.1767
     35 C          58.2468   93.8495   12.2294 C.3     1  UNL1        0.2542
     36 O          58.0069   92.6402   11.3750 O.3     1  UNL1       -0.4561
     37 O          58.1823   88.0094   13.7257 O.3     1  UNL1       -0.4561
     38 C          56.7024   87.7738   13.6595 C.3     1  UNL1        0.2542
     39 C          62.4809   91.0469   10.8954 C.3     1  UNL1        0.0491
     40 C          63.6759   91.6128   10.1870 C.3     1  UNL1        0.0750
     41 N          64.7664   92.2800   10.9716 N.3     1  UNL1       -0.2702
     42 C          64.8567   92.0748   12.4547 C.3     1  UNL1        0.0897
     43 C          65.7667   93.1526   10.2730 C.3     1  UNL1        0.0897
@<TRIPOS>BOND
     1    35    36    1
     2    36    29    1
     3    29    30   ar
     4    30    31   ar
     5    31    26    1
     6    26    27    1
     7    26    39    1
     8    39    40    1
     9    40    41    1
    10    41    42    1
    11    41    43    1
    12    26     1    1
    13     1     2    1
    14     2     3   ar
    15     3     4   ar
    16     4     5   ar
    17     5     6   ar
    18     6    12    1
    19    12    13    3
    20     6     7   ar
    21     7     8   ar
    22     8     9   ar
    23     9    10   ar
    24    10    11   ar
    25    11    14    1
    26    14    15    1
    27     1    16    1
    28    16    17   ar
    29    17    18   ar
    30    18    19   ar
    31    19    20   ar
    32    20    21   ar
    33    21    22    1
    34    22    23    1
    35    23    24    1
    36    24    25    1
    37    31    32   ar
    38    32    33   ar
    39    33    37    1
    40    37    38    1
    41    33    34   ar
    42    34    29   ar
    43    11     2   ar
    44    21    16   ar
    45     9     4   ar
    46    25    20    1
    47    27    28    1
@<TRIPOS>MOLECULE
*****
 43 47 0 0 0
SMALL
GASTEIGER

@<TRIPOS>ATOM
      1 C          61.8393   88.0893   10.6797 C.3     1  UNL1        0.0807
      2 C          62.4124   87.1136   11.6644 C.ar    1  UNL1        0.0375
      3 C          62.1208   85.6489   11.5252 C.ar    1  UNL1        0.0023
      4 C          62.6939   84.6732   12.5100 C.ar    1  UNL1        0.0183
      5 C          62.4023   83.2084   12.3708 C.ar    1  UNL1        0.0118
      6 C          62.9754   82.2328   13.3555 C.ar    1  UNL1        0.0685
      7 C          63.8401   82.7219   14.4794 C.ar    1  UNL1        0.0118
      8 C          64.1316   84.1867   14.6186 C.ar    1  UNL1        0.0199
      9 C          63.5586   85.1623   13.6339 C.ar    1  UNL1        0.0844
     10 N          63.8501   86.6271   13.7730 N.ar    1  UNL1       -0.2119
     11 C          63.2770   87.6028   12.7883 C.ar    1  UNL1        0.2211
     12 C          62.6839   80.7679   13.2164 C.1     1  UNL1        0.1004
     13 N          62.3924   79.3031   13.0772 N.1     1  UNL1       -0.1908
     14 O          63.5686   89.0676   12.9274 O.3     1  UNL1       -0.4563
     15 C          64.1821   89.2398   14.2854 C.3     1  UNL1        0.2542
     16 C          60.9435   87.6048    9.5785 C.ar    1  UNL1        0.0213
     17 C          59.5615   88.1693    9.4328 C.ar    1  UNL1       -0.0007
     18 C          58.6656   87.6848    8.3315 C.ar    1  UNL1        0.0030
     19 C          59.1518   86.6357    7.3760 C.ar    1  UNL1        0.0400
     20 C          60.5339   86.0712    7.5217 C.ar    1  UNL1        0.1721
     21 C          61.4297   86.5557    8.6229 C.ar    1  UNL1        0.1687
     22 O          62.8117   85.9912    8.7686 O.3     1  UNL1       -0.4687
     23 C          63.2980   84.9422    7.8130 C.3     1  UNL1        0.2526
     24 C          62.4022   84.4576    6.7118 C.3     1  UNL1        0.2526
     25 O          61.0202   85.0222    6.5662 O.3     1  UNL1       -0.4684
     26 C          62.1621   89.5495   10.7962 C.3     1  UNL1        0.1162
     27 O          63.5216   89.2954   10.2156 O.3     1  UNL1       -0.3820
     28 H          64.0114   90.1309   10.1615 H       1  UNL1        0.2107
     29 C          58.7961   89.0254   12.8322 C.ar    1  UNL1        0.2272
     30 C          60.1556   88.7712   12.2516 C.ar    1  UNL1        0.0559
     31 C          60.8025   89.8037   11.3768 C.ar    1  UNL1        0.0117
     32 C          60.0899   91.0904   11.0826 C.ar    1  UNL1        0.0559
     33 C          58.7304   91.3445   11.6632 C.ar    1  UNL1        0.2272
     34 N          58.0835   90.3120   12.5380 N.ar    1  UNL1       -0.1767
     35 C          56.6644   87.7865   13.6517 C.3     1  UNL1        0.2542
     36 O          58.1492   87.9927   13.7071 O.3     1  UNL1       -0.4561
     37 O          58.0178   92.6313   11.3690 O.3     1  UNL1       -0.4561
     38 C          58.2601   93.8364   12.2286 C.3     1  UNL1        0.2542
     39 C          62.4848   91.0098   10.9128 C.3     1  UNL1        0.0491
     40 C          63.6839   91.5714   10.2081 C.3     1  UNL1        0.0750
     41 N          64.7666   92.2494   10.9943 N.3     1  UNL1       -0.2702
     42 C          64.8505   92.0531   12.4790 C.3     1  UNL1        0.0897
     43 C          65.7654   93.1238   10.2959 C.3     1  UNL1        0.0897
@<TRIPOS>BOND
     1    35    36    1
     2    36    29    1
     3    29    30   ar
     4    30    31   ar
     5    31    26    1
     6    26    27    1
     7    26    39    1
     8    39    40    1
     9    40    41    1
    10    41    42    1
    11    41    43    1
    12    26     1    1
    13     1     2    1
    14     2     3   ar
    15     3     4   ar
    16     4     5   ar
    17     5     6   ar
    18     6    12    1
    19    12    13    3
    20     6     7   ar
    21     7     8   ar
    22     8     9   ar
    23     9    10   ar
    24    10    11   ar
    25    11    14    1
    26    14    15    1
    27     1    16    1
    28    16    17   ar
    29    17    18   ar
    30    18    19   ar
    31    19    20   ar
    32    20    21   ar
    33    21    22    1
    34    22    23    1
    35    23    24    1
    36    24    25    1
    37    31    32   ar
    38    32    33   ar
    39    33    37    1
    40    37    38    1
    41    33    34   ar
    42    34    29   ar
    43    11     2   ar
    44    21    16   ar
    45     9     4   ar
    46    25    20    1
    47    27    28    1
@<TRIPOS>MOLECULE
*****
 43 47 0 0 0
SMALL
GASTEIGER

@<TRIPOS>ATOM
      1 C          63.1979   88.8970   12.2640 C.3     1  UNL1        0.0807
      2 C          62.1500   88.3951   11.3151 C.ar    1  UNL1        0.0375
      3 C          62.5349   87.4880   10.1842 C.ar    1  UNL1        0.0023
      4 C          61.4871   86.9861    9.2353 C.ar    1  UNL1        0.0183
      5 C          61.8720   86.0791    8.1044 C.ar    1  UNL1        0.0118
      6 C          60.8242   85.5772    7.1556 C.ar    1  UNL1        0.0685
      7 C          59.3915   85.9824    7.3378 C.ar    1  UNL1        0.0118
      8 C          59.0066   86.8894    8.4688 C.ar    1  UNL1        0.0199
      9 C          60.0544   87.3913    9.4175 C.ar    1  UNL1        0.0844
     10 N          59.6695   88.2984   10.5485 N.ar    1  UNL1       -0.2119
     11 C          60.7173   88.8002   11.4973 C.ar    1  UNL1        0.2211
     12 C          61.2091   84.6702    6.0246 C.1     1  UNL1        0.1004
     13 N          61.5940   83.7631    4.8936 N.1     1  UNL1       -0.1908
     14 O          60.3325   89.7073   12.6283 O.3     1  UNL1       -0.4563
     15 C          58.8346   89.6691   12.6975 C.3     1  UNL1        0.2542
     16 C          63.8304   87.9580   13.2479 C.ar    1  UNL1        0.0213
     17 C          64.8133   88.4772   14.2549 C.ar    1  UNL1       -0.0007
     18 C          65.4458   87.5382   15.2389 C.ar    1  UNL1        0.0030
     19 C          65.0954   86.0799   15.2158 C.ar    1  UNL1        0.0400
     20 C          64.1124   85.5606   14.2087 C.ar    1  UNL1        0.1721
     21 C          63.4799   86.4996   13.2248 C.ar    1  UNL1        0.1687
     22 O          62.4970   85.9804   12.2178 O.3     1  UNL1       -0.4687
     23 C          62.1465   84.5221   12.1947 C.3     1  UNL1        0.2526
     24 C          62.7790   83.5830   13.1786 C.3     1  UNL1        0.2526
     25 O          63.7620   84.1023   14.1856 O.3     1  UNL1       -0.4684
     26 C          63.6131   90.3379   12.2288 C.3     1  UNL1        0.1162
     27 O          63.6890   90.2795   10.7319 O.3     1  UNL1       -0.3820
     28 H          63.9586   91.1455   10.3878 H       1  UNL1        0.2107
     29 C          64.2755   91.4644   15.9761 C.ar    1  UNL1        0.2272
     30 C          64.3514   91.4060   14.4792 C.ar    1  UNL1        0.0559
     31 C          63.5373   90.3963   13.7258 C.ar    1  UNL1        0.0117
     32 C          62.6473   89.4450   14.4693 C.ar    1  UNL1        0.0559
     33 C          62.5714   89.5034   15.9662 C.ar    1  UNL1        0.2272
     34 N          63.3855   90.5131   16.7196 N.ar    1  UNL1       -0.1767
     35 C          66.4856   92.7951   16.2841 C.3     1  UNL1        0.2542
     36 O          65.0897   92.4741   16.7295 O.3     1  UNL1       -0.4561
     37 O          61.6813   88.5520   16.7097 O.3     1  UNL1       -0.4561
     38 C          62.2642   87.3329   17.3608 C.3     1  UNL1        0.2542
     39 C          64.0284   91.7789   12.1937 C.3     1  UNL1        0.0491
     40 C          64.8093   92.3061   11.0266 C.3     1  UNL1        0.0750
     41 N          66.1384   92.9647   11.2495 N.3     1  UNL1       -0.2702
     42 C          67.2729   92.7037   10.3035 C.3     1  UNL1        0.0897
     43 C          66.3331   93.8843   12.4184 C.3     1  UNL1        0.0897
@<TRIPOS>BOND
     1    35    36    1
     2    36    29    1
     3    29    30   ar
     4    30    31   ar
     5    31    26    1
     6    26    27    1
     7    26    39    1
     8    39    40    1
     9    40    41    1
    10    41    42    1
    11    41    43    1
    12    26     1    1
    13     1     2    1
    14     2     3   ar
    15     3     4   ar
    16     4     5   ar
    17     5     6   ar
    18     6    12    1
    19    12    13    3
    20     6     7   ar
    21     7     8   ar
    22     8     9   ar
    23     9    10   ar
    24    10    11   ar
    25    11    14    1
    26    14    15    1
    27     1    16    1
    28    16    17   ar
    29    17    18   ar
    30    18    19   ar
    31    19    20   ar
    32    20    21   ar
    33    21    22    1
    34    22    23    1
    35    23    24    1
    36    24    25    1
    37    31    32   ar
    38    32    33   ar
    39    33    37    1
    40    37    38    1
    41    33    34   ar
    42    34    29   ar
    43    11     2   ar
    44    21    16   ar
    45     9     4   ar
    46    25    20    1
    47    27    28    1
@<TRIPOS>MOLECULE
*****
 43 47 0 0 0
SMALL
GASTEIGER

@<TRIPOS>ATOM
      1 C          63.2070   88.8955   12.2786 C.3     1  UNL1        0.0807
      2 C          62.1599   88.3985   11.3264 C.ar    1  UNL1        0.0375
      3 C          62.5437   87.4879   10.1980 C.ar    1  UNL1        0.0023
      4 C          61.4966   86.9910    9.2458 C.ar    1  UNL1        0.0183
      5 C          61.8804   86.0803    8.1174 C.ar    1  UNL1        0.0118
      6 C          60.8333   85.5834    7.1653 C.ar    1  UNL1        0.0685
      7 C          59.4023   85.9972    7.3416 C.ar    1  UNL1        0.0118
      8 C          59.0184   86.9078    8.4700 C.ar    1  UNL1        0.0199
      9 C          60.0656   87.4047    9.4221 C.ar    1  UNL1        0.0844
     10 N          59.6817   88.3154   10.5506 N.ar    1  UNL1       -0.2119
     11 C          60.7289   88.8123   11.5027 C.ar    1  UNL1        0.2211
     12 C          61.2171   84.6727    6.0368 C.1     1  UNL1        0.1004
     13 N          61.6009   83.7621    4.9084 N.1     1  UNL1       -0.1908
     14 O          60.3451   89.7230   12.6312 O.3     1  UNL1       -0.4563
     15 C          58.8488   89.6642   12.7191 C.3     1  UNL1        0.2542
     16 C          63.8362   87.9521   13.2605 C.ar    1  UNL1        0.0213
     17 C          64.8204   88.4659   14.2692 C.ar    1  UNL1       -0.0007
     18 C          65.4496   87.5226   15.2512 C.ar    1  UNL1        0.0030
     19 C          65.0945   86.0655   15.2245 C.ar    1  UNL1        0.0400
     20 C          64.1103   85.5517   14.2158 C.ar    1  UNL1        0.1721
     21 C          63.4812   86.4950   13.2339 C.ar    1  UNL1        0.1687
     22 O          62.4970   85.9812   12.2252 O.3     1  UNL1       -0.4687
     23 C          62.1420   84.5241   12.1985 C.3     1  UNL1        0.2526
     24 C          62.7711   83.5807   13.1805 C.3     1  UNL1        0.2526
     25 O          63.7553   84.0945   14.1891 O.3     1  UNL1       -0.4684
     26 C          63.6250   90.3358   12.2488 C.3     1  UNL1        0.1162
     27 O          63.6947   90.2845   10.7513 O.3     1  UNL1       -0.3820
     28 H          63.9645   91.1516   10.4103 H       1  UNL1        0.2107
     29 C          62.5861   89.4944   15.9855 C.ar    1  UNL1        0.2272
     30 C          62.6558   89.4432   14.4880 C.ar    1  UNL1        0.0559
     31 C          63.5553   90.3870   13.7463 C.ar    1  UNL1        0.0117
     32 C          64.3850   91.3821   14.5021 C.ar    1  UNL1        0.0559
     33 C          64.3153   91.4333   15.9996 C.ar    1  UNL1        0.2272
     34 N          63.4158   90.4895   16.7413 N.ar    1  UNL1       -0.1767
     35 C          62.2527   87.3094   17.3510 C.3     1  UNL1        0.2542
     36 O          61.6866   88.5505   16.7271 O.3     1  UNL1       -0.4561
     37 O          65.1451   92.4284   16.7555 O.3     1  UNL1       -0.4561
     38 C          66.5285   92.7642   16.2830 C.3     1  UNL1        0.2542
     39 C          64.0429   91.7760   12.2190 C.3     1  UNL1        0.0491
     40 C          64.8044   92.3118   11.0430 C.3     1  UNL1        0.0750
     41 N          66.1246   92.9927   11.2514 N.3     1  UNL1       -0.2702
     42 C          66.3298   93.8829   12.4411 C.3     1  UNL1        0.0897
     43 C          67.2396   92.7834   10.2702 C.3     1  UNL1        0.0897
@<TRIPOS>BOND
     1    35    36    1
     2    36    29    1
     3    29    30   ar
     4    30    31   ar
     5    31    26    1
     6    26    27    1
     7    26    39    1
     8    39    40    1
     9    40    41    1
    10    41    42    1
    11    41    43    1
    12    26     1    1
    13     1     2    1
    14     2     3   ar
    15     3     4   ar
    16     4     5   ar
    17     5     6   ar
    18     6    12    1
    19    12    13    3
    20     6     7   ar
    21     7     8   ar
    22     8     9   ar
    23     9    10   ar
    24    10    11   ar
    25    11    14    1
    26    14    15    1
    27     1    16    1
    28    16    17   ar
    29    17    18   ar
    30    18    19   ar
    31    19    20   ar
    32    20    21   ar
    33    21    22    1
    34    22    23    1
    35    23    24    1
    36    24    25    1
    37    31    32   ar
    38    32    33   ar
    39    33    37    1
    40    37    38    1
    41    33    34   ar
    42    34    29   ar
    43    11     2   ar
    44    21    16   ar
    45     9     4   ar
    46    25    20    1
    47    27    28    1
