@<TRIPOS>MOLECULE
*****
 37 41 0 0 0
SMALL
GASTEIGER

@<TRIPOS>ATOM
      1 C          58.7448   90.4536    5.8893 C.2     1  UNL1        0.2492
      2 O          57.2655   90.6897    5.9670 O.2     1  UNL1       -0.2699
      3 N          59.5611   91.1485    4.8401 N.am    1  UNL1       -0.2761
      4 C          58.8982   92.0796    3.8688 C.3     1  UNL1        0.0937
      5 C          59.7145   92.7745    2.8197 C.3     1  UNL1        0.0223
      6 C          61.1938   92.5383    2.7419 C.3     1  UNL1        0.0148
      7 C          61.8567   91.6073    3.7133 C.3     1  UNL1        0.0223
      8 C          61.0404   90.9124    4.7624 C.3     1  UNL1        0.0937
      9 C          60.5309   93.4694    1.7705 C.3     1  UNL1        0.0712
     10 C          61.3472   94.1643    0.7214 C.2     1  UNL1        0.1899
     11 O          60.6843   95.0955   -0.2501 O.2     1  UNL1       -0.2898
     12 C          62.8265   93.9282    0.6437 C.ar    1  UNL1        0.1099
     13 C          63.4894   92.9971    1.6150 C.ar    1  UNL1        0.0188
     14 C          64.9547   92.9612    1.2965 C.ar    1  UNL1        0.1174
     15 N          65.1974   93.8702    0.1282 N.ar    1  UNL1       -0.1680
     16 N          63.8821   94.4678   -0.2752 N.ar    1  UNL1       -0.2503
     17 C          62.6730   92.3021    2.6642 C.3     1  UNL1        0.0301
     18 C          59.9452   87.1074    7.6535 C.ar    1  UNL1        0.2251
     19 C          59.2823   88.0385    6.6820 C.ar    1  UNL1        0.0622
     20 C          59.4077   89.5225    6.8607 C.ar    1  UNL1        0.0597
     21 C          60.1961   90.0755    8.0109 C.ar    1  UNL1        0.0239
     22 C          60.8590   89.1444    8.9822 C.ar    1  UNL1        0.0845
     23 N          60.7336   87.6604    8.8035 N.ar    1  UNL1       -0.2117
     24 C          61.6473   89.6974   10.1323 C.ar    1  UNL1        0.0178
     25 C          61.3624   89.2320   11.5296 C.ar    1  UNL1        0.0015
     26 C          62.1507   89.7850   12.6797 C.ar    1  UNL1        0.0012
     27 C          63.2240   90.8033   12.4326 C.ar    1  UNL1        0.0140
     28 C          63.5089   91.2687   11.0354 C.ar    1  UNL1        0.0012
     29 C          62.7206   90.7157    9.8852 C.ar    1  UNL1        0.0015
     30 C          64.0123   91.3563   13.5826 C.2     1  UNL1        0.0729
     31 O          63.5153   91.1789   14.9868 O.co2   1  UNL1       -0.5446
     32 O          65.2977   92.0866   13.3286 O.co2   1  UNL1       -0.5446
     33 C          60.9544   84.8407    6.8830 C.3     1  UNL1        0.2542
     34 O          59.8198   85.6234    7.4748 O.3     1  UNL1       -0.4561
     35 C          63.6612   95.4352   -1.4002 C.3     1  UNL1        0.1054
     36 C          63.2754   96.8541   -1.1042 C.3     1  UNL1        0.0263
     37 C          63.8261   94.9836   -2.8211 C.3     1  UNL1        0.0263
@<TRIPOS>UNITY_ATOM_ATTR
31 1
charge -1
@<TRIPOS>BOND
     1    33    34    1
     2    34    18    1
     3    18    19   ar
     4    19    20   ar
     5    20     1    1
     6     1     2    2
     7     1     3   am
     8     3     4    1
     9     4     5    1
    10     5     6    1
    11     6     7    1
    12     7     8    1
    13     6     9    1
    14     9    10    1
    15    10    11    2
    16    10    12    1
    17    12    13   ar
    18    13    14   ar
    19    14    15   ar
    20    15    16   ar
    21    16    35    1
    22    35    36    1
    23    35    37    1
    24    13    17    1
    25    20    21   ar
    26    21    22   ar
    27    22    24    1
    28    24    25   ar
    29    25    26   ar
    30    26    27   ar
    31    27    30    1
    32    30    31   ar
    33    30    32   ar
    34    27    28   ar
    35    28    29   ar
    36    22    23   ar
    37    23    18   ar
    38     8     3    1
    39    16    12   ar
    40    29    24   ar
    41    17     6    1
