@<TRIPOS>MOLECULE
*****
 40 45 0 0 0
SMALL
GASTEIGER

@<TRIPOS>ATOM
      1 C          61.7082   88.4992   10.1632 C.3     1  UNL1        0.0312
      2 C          62.3723   87.5863   11.1510 C.2     1  UNL1        0.0136
      3 C          62.3150   86.1002   10.9550 C.2     1  UNL1        0.0107
      4 C          62.9791   85.1874   11.9428 C.2     1  UNL1        0.0509
      5 C          63.7005   85.7606   13.1264 C.2     1  UNL1        0.0613
      6 C          63.7578   87.2467   13.3224 C.2     1  UNL1        0.2246
      7 N          64.3906   88.0952   14.3851 N.2     1  UNL1       -0.0378
      8 C          64.1176   89.5326   14.0541 C.2     1  UNL1        0.3605
      9 N          63.3161   89.5723   12.7869 N.2     1  UNL1       -0.0547
     10 C          63.0937   88.1594   12.3346 C.3     1  UNL1        0.2976
     11 N          62.9218   83.7013   11.7469 N.pl3   1  UNL1       -0.3071
     12 C          63.2495   83.1079   10.4089 C.3     1  UNL1        0.0958
     13 C          63.1922   81.6219   10.2131 C.3     1  UNL1        0.0776
     14 C          62.8072   80.7292   11.3554 C.3     1  UNL1        0.1905
     15 C          62.4796   81.3226   12.6935 C.3     1  UNL1        0.0776
     16 C          62.5368   82.8087   12.8893 C.3     1  UNL1        0.0958
     17 O          62.4407   79.7159   12.3989 O.3     1  UNL1       -0.3315
     18 C          62.5134   78.3560   11.7702 C.3     1  UNL1        0.1767
     19 C          62.9248   78.5288   10.3381 C.3     1  UNL1        0.1767
     20 O          63.1065   79.9955   10.0817 O.3     1  UNL1       -0.3315
     21 C          64.5672   90.7215   14.8507 C.3     1  UNL1        0.2246
     22 C          65.5731   91.6735   14.2744 C.2     1  UNL1        0.0436
     23 C          66.0226   92.8623   15.0709 C.2     1  UNL1        0.0288
     24 C          65.4664   93.0993   16.4436 C.2     1  UNL1        0.0896
     25 N          64.4605   92.1473   17.0199 N.am    1  UNL1       -0.1770
     26 C          64.0109   90.9584   16.2234 C.2     1  UNL1        0.2627
     27 O          63.0051   90.0065   16.7997 O.2     1  UNL1       -0.2719
     28 N          66.1292   91.4365   12.9017 N.pl3   1  UNL1       -0.3329
     29 H          65.6771   90.8131   12.2882 H       1  UNL1        0.1466
     30 C          67.3743   92.1492   12.4636 C.3     1  UNL1        0.1211
     31 C          67.4955   92.6501   11.0550 C.3     1  UNL1        0.1522
     32 O          68.0319   91.7494    9.9821 O.3     1  UNL1       -0.3783
     33 H          68.0440   92.2250    9.1368 H       1  UNL1        0.2109
     34 C          67.0804   94.0519   10.7191 C.ar    1  UNL1        0.0067
     35 C          66.1889   94.8144   11.6537 C.ar    1  UNL1       -0.0018
     36 C          65.7737   96.2162   11.3178 C.ar    1  UNL1        0.0006
     37 C          66.2501   96.8553   10.0472 C.ar    1  UNL1        0.0114
     38 C          67.1417   96.0928    9.1125 C.ar    1  UNL1        0.0574
     39 CL         67.6182   96.7319    7.8419 Cl      1  UNL1       -0.0823
     40 C          67.5568   94.6911    9.4485 C.ar    1  UNL1        0.0095
@<TRIPOS>BOND
     1     1     2    1
     2     2     3    2
     3     3     4    1
     4     4    11    1
     5    11    12    1
     6    12    13    1
     7    13    14    1
     8    14    15    1
     9    15    16    1
    10    14    17    1
    11    17    18    1
    12    18    19    1
    13    19    20    1
    14     4     5    2
    15     5     6    1
    16     6     7    2
    17     7     8    1
    18     8    21    1
    19    21    22    1
    20    22    28    1
    21    28    30    1
    22    30    31    1
    23    31    32    1
    24    31    34    1
    25    34    35   ar
    26    35    36   ar
    27    36    37   ar
    28    37    38   ar
    29    38    39    1
    30    38    40   ar
    31    22    23    2
    32    23    24    1
    33    24    25    2
    34    25    26    1
    35    26    27    2
    36     8     9    2
    37     9    10    1
    38    10     2    1
    39    16    11    1
    40    10     6    1
    41    20    14    1
    42    26    21    1
    43    40    34   ar
    44    28    29    1
    45    32    33    1
@<TRIPOS>MOLECULE
*****
 40 45 0 0 0
SMALL
GASTEIGER

@<TRIPOS>ATOM
      1 C          63.3718   89.0237   17.1187 C.3     1  UNL1        0.0312
      2 C          63.6769   89.0448   15.6502 C.2     1  UNL1        0.0136
      3 C          64.1239   90.3181   14.9952 C.2     1  UNL1        0.0107
      4 C          64.4290   90.3391   13.5268 C.2     1  UNL1        0.0509
      5 C          64.2872   89.0868   12.7133 C.2     1  UNL1        0.0613
      6 C          63.8402   87.8135   13.3683 C.2     1  UNL1        0.2246
      7 N          63.6113   86.4333   12.8275 N.2     1  UNL1       -0.0378
      8 C          63.1647   85.5593   13.9617 C.2     1  UNL1        0.3605
      9 N          63.1176   86.3993   15.2035 N.2     1  UNL1       -0.0547
     10 C          63.5351   87.7926   14.8367 C.3     1  UNL1        0.2976
     11 N          64.8759   91.6123   12.8717 N.pl3   1  UNL1       -0.3071
     12 C          64.5181   91.8854   11.4409 C.3     1  UNL1        0.0958
     13 C          64.9651   93.1587   10.7859 C.3     1  UNL1        0.0776
     14 C          65.7698   94.1589   11.5618 C.3     1  UNL1        0.1905
     15 C          66.1276   93.8858   12.9926 C.3     1  UNL1        0.0776
     16 C          65.6806   92.6125   13.6476 C.3     1  UNL1        0.0958
     17 O          66.5756   95.2469   12.2075 O.3     1  UNL1       -0.3315
     18 C          66.7932   96.3281   11.1908 C.3     1  UNL1        0.1767
     19 C          66.1220   95.9083    9.9168 C.3     1  UNL1        0.1767
     20 O          65.4895   94.5677   10.1460 O.3     1  UNL1       -0.3315
     21 C          62.8247   84.1011   13.8702 C.3     1  UNL1        0.2246
     22 C          62.8270   83.4127   12.5374 C.2     1  UNL1        0.0436
     23 C          62.4871   81.9546   12.4459 C.2     1  UNL1        0.0288
     24 C          62.1450   81.1849   13.6871 C.2     1  UNL1        0.0896
     25 N          62.1427   81.8733   15.0198 N.am    1  UNL1       -0.1770
     26 C          62.4826   83.3314   15.1114 C.2     1  UNL1        0.2627
     27 O          62.4804   84.0198   16.4441 O.2     1  UNL1       -0.2719
     28 N          63.1691   84.1824   11.2963 N.pl3   1  UNL1       -0.3329
     29 H          64.1055   84.4207   11.1073 H       1  UNL1        0.1466
     30 C          62.0846   84.5892   10.3432 C.3     1  UNL1        0.1211
     31 C          62.3846   85.5507    9.2318 C.3     1  UNL1        0.1522
     32 O          63.4682   85.2390    8.2425 O.3     1  UNL1       -0.3783
     33 H          63.5316   85.9584    7.5950 H       1  UNL1        0.2109
     34 C          61.6010   86.8239    9.1095 C.ar    1  UNL1        0.0067
     35 C          60.4019   86.8832    8.2104 C.ar    1  UNL1       -0.0018
     36 C          59.6183   88.1565    8.0881 C.ar    1  UNL1        0.0006
     37 C          60.0341   89.3705    8.8650 C.ar    1  UNL1        0.0114
     38 C          61.2333   89.3111    9.7641 C.ar    1  UNL1        0.0574
     39 CL         61.6491   90.5251   10.5409 Cl      1  UNL1       -0.0823
     40 C          62.0168   88.0379    9.8863 C.ar    1  UNL1        0.0095
@<TRIPOS>BOND
     1     1     2    1
     2     2     3    2
     3     3     4    1
     4     4    11    1
     5    11    12    1
     6    12    13    1
     7    13    14    1
     8    14    15    1
     9    15    16    1
    10    14    17    1
    11    17    18    1
    12    18    19    1
    13    19    20    1
    14     4     5    2
    15     5     6    1
    16     6     7    2
    17     7     8    1
    18     8    21    1
    19    21    22    1
    20    22    28    1
    21    28    30    1
    22    30    31    1
    23    31    32    1
    24    31    34    1
    25    34    35   ar
    26    35    36   ar
    27    36    37   ar
    28    37    38   ar
    29    38    39    1
    30    38    40   ar
    31    22    23    2
    32    23    24    1
    33    24    25    2
    34    25    26    1
    35    26    27    2
    36     8     9    2
    37     9    10    1
    38    10     2    1
    39    16    11    1
    40    10     6    1
    41    20    14    1
    42    26    21    1
    43    40    34   ar
    44    28    29    1
    45    32    33    1
@<TRIPOS>MOLECULE
*****
 40 45 0 0 0
SMALL
GASTEIGER

@<TRIPOS>ATOM
      1 C          63.1290   88.6583   17.5287 C.3     1  UNL1        0.0312
      2 C          63.4138   88.0994   16.1661 C.2     1  UNL1        0.0136
      3 C          63.1457   86.6520   15.8781 C.2     1  UNL1        0.0107
      4 C          63.4306   86.0932   14.5155 C.2     1  UNL1        0.0509
      5 C          63.9835   86.9819   13.4410 C.2     1  UNL1        0.0613
      6 C          64.2516   88.4294   13.7290 C.2     1  UNL1        0.2246
      7 N          64.7904   89.5394   12.8761 N.2     1  UNL1       -0.0378
      8 C          64.8386   90.7842   13.7116 C.2     1  UNL1        0.3605
      9 N          64.3295   90.4435   15.0808 N.2     1  UNL1       -0.0547
     10 C          63.9667   88.9881   15.0916 C.3     1  UNL1        0.2976
     11 N          63.1625   84.6458   14.2274 N.pl3   1  UNL1       -0.3071
     12 C          62.3367   83.8319   15.1790 C.3     1  UNL1        0.0958
     13 C          62.0686   82.3845   14.8908 C.3     1  UNL1        0.0776
     14 C          62.6265   81.7508   13.6510 C.3     1  UNL1        0.1905
     15 C          63.4523   82.5647   12.6993 C.3     1  UNL1        0.0776
     16 C          63.7203   84.0121   12.9875 C.3     1  UNL1        0.0958
     17 O          63.1152   80.9842   12.4579 O.3     1  UNL1       -0.3315
     18 C          62.6134   79.5755   12.5749 C.3     1  UNL1        0.1767
     19 C          61.8146   79.4715   13.8402 C.3     1  UNL1        0.1767
     20 O          61.8226   80.8159   14.5052 O.3     1  UNL1       -0.3315
     21 C          65.3126   92.1331   13.2575 C.3     1  UNL1        0.2246
     22 C          65.1903   92.5243   11.8146 C.2     1  UNL1        0.0436
     23 C          65.6643   93.8731   11.3605 C.2     1  UNL1        0.0288
     24 C          66.2606   94.8305   12.3493 C.2     1  UNL1        0.0896
     25 N          66.3828   94.4392   13.7922 N.am    1  UNL1       -0.1770
     26 C          65.9088   93.0905   14.2464 C.2     1  UNL1        0.2627
     27 O          66.0311   92.6992   15.6892 O.2     1  UNL1       -0.2719
     28 N          64.5941   91.5668   10.8258 N.pl3   1  UNL1       -0.3329
     29 H          65.1725   90.9303   10.3467 H       1  UNL1        0.1466
     30 C          63.1166   91.5791   10.5671 C.3     1  UNL1        0.1211
     31 C          62.2461   90.4995   11.1385 C.3     1  UNL1        0.1522
     32 O          61.9054   90.5051   12.5992 O.3     1  UNL1       -0.3783
     33 H          61.3391   89.7442   12.8021 H       1  UNL1        0.2109
     34 C          61.7162   89.4140   10.2490 C.ar    1  UNL1        0.0067
     35 C          60.5115   89.6677    9.3923 C.ar    1  UNL1       -0.0018
     36 C          59.9815   88.5822    8.5028 C.ar    1  UNL1        0.0006
     37 C          60.6566   87.2431    8.4702 C.ar    1  UNL1        0.0114
     38 C          61.8614   86.9894    9.3270 C.ar    1  UNL1        0.0574
     39 CL         62.5364   85.6503    9.2944 Cl      1  UNL1       -0.0823
     40 C          62.3912   88.0749   10.2164 C.ar    1  UNL1        0.0095
@<TRIPOS>BOND
     1     1     2    1
     2     2     3    2
     3     3     4    1
     4     4    11    1
     5    11    12    1
     6    12    13    1
     7    13    14    1
     8    14    15    1
     9    15    16    1
    10    14    17    1
    11    17    18    1
    12    18    19    1
    13    19    20    1
    14     4     5    2
    15     5     6    1
    16     6     7    2
    17     7     8    1
    18     8    21    1
    19    21    22    1
    20    22    28    1
    21    28    30    1
    22    30    31    1
    23    31    32    1
    24    31    34    1
    25    34    35   ar
    26    35    36   ar
    27    36    37   ar
    28    37    38   ar
    29    38    39    1
    30    38    40   ar
    31    22    23    2
    32    23    24    1
    33    24    25    2
    34    25    26    1
    35    26    27    2
    36     8     9    2
    37     9    10    1
    38    10     2    1
    39    16    11    1
    40    10     6    1
    41    20    14    1
    42    26    21    1
    43    40    34   ar
    44    28    29    1
    45    32    33    1
@<TRIPOS>MOLECULE
*****
 40 45 0 0 0
SMALL
GASTEIGER

@<TRIPOS>ATOM
      1 C          63.5935   86.8384   14.8464 C.3     1  UNL1        0.0312
      2 C          63.9035   88.0861   14.0736 C.2     1  UNL1        0.0136
      3 C          64.8948   89.0748   14.6119 C.2     1  UNL1        0.0107
      4 C          65.2048   90.3224   13.8390 C.2     1  UNL1        0.0509
      5 C          64.5235   90.5813   12.5280 C.2     1  UNL1        0.0613
      6 C          63.5322   89.5926   11.9898 C.2     1  UNL1        0.2246
      7 N          62.7096   89.5774   10.7356 N.2     1  UNL1       -0.0378
      8 C          61.8911   88.3204   10.7333 C.2     1  UNL1        0.3605
      9 N          62.2080   87.5587   11.9860 N.2     1  UNL1       -0.0547
     10 C          63.2222   88.3450   12.7626 C.3     1  UNL1        0.2976
     11 N          66.1961   91.3112   14.3772 N.pl3   1  UNL1       -0.3071
     12 C          67.5525   91.4317   13.7481 C.3     1  UNL1        0.0958
     13 C          68.5437   92.4205   14.2863 C.3     1  UNL1        0.0776
     14 C          68.1787   93.2888   15.4536 C.3     1  UNL1        0.1905
     15 C          66.8223   93.1684   16.0827 C.3     1  UNL1        0.0776
     16 C          65.8310   92.1796   15.5445 C.3     1  UNL1        0.0958
     17 O          67.9572   94.2194   16.6091 O.3     1  UNL1       -0.3315
     18 C          69.2071   95.0263   16.8004 C.3     1  UNL1        0.1767
     19 C          70.2010   94.5945   15.7632 C.3     1  UNL1        0.1767
     20 O          69.5654   93.5207   14.9309 O.3     1  UNL1       -0.3315
     21 C          60.9254   87.8990    9.6656 C.3     1  UNL1        0.2246
     22 C          60.7277   86.4426    9.3654 C.2     1  UNL1        0.0436
     23 C          59.7621   86.0213    8.2978 C.2     1  UNL1        0.0288
     24 C          58.9940   87.0562    7.5303 C.2     1  UNL1        0.0896
     25 N          59.1917   88.5125    7.8305 N.am    1  UNL1       -0.1770
     26 C          60.1574   88.9340    8.8981 C.2     1  UNL1        0.2627
     27 O          60.3550   90.3902    9.1983 O.2     1  UNL1       -0.2719
     28 N          61.4958   85.4078   10.1329 N.pl3   1  UNL1       -0.3329
     29 H          61.0997   84.9942   10.9337 H       1  UNL1        0.1466
     30 C          62.8675   85.0031    9.6803 C.3     1  UNL1        0.1211
     31 C          63.5413   83.8146   10.2994 C.3     1  UNL1        0.1522
     32 O          64.6885   83.1520    9.5960 O.3     1  UNL1       -0.3783
     33 H          65.0063   82.4056   10.1278 H       1  UNL1        0.2109
     34 C          63.0679   83.2886   11.6221 C.ar    1  UNL1        0.0067
     35 C          62.8384   84.2317   12.7656 C.ar    1  UNL1       -0.0018
     36 C          62.3651   83.7057   14.0883 C.ar    1  UNL1        0.0006
     37 C          62.1213   82.2365   14.2673 C.ar    1  UNL1        0.0114
     38 C          62.3508   81.2934   13.1237 C.ar    1  UNL1        0.0574
     39 CL         62.1070   79.8242   13.3027 Cl      1  UNL1       -0.0823
     40 C          62.8241   81.8194   11.8011 C.ar    1  UNL1        0.0095
@<TRIPOS>BOND
     1     1     2    1
     2     2     3    2
     3     3     4    1
     4     4    11    1
     5    11    12    1
     6    12    13    1
     7    13    14    1
     8    14    15    1
     9    15    16    1
    10    14    17    1
    11    17    18    1
    12    18    19    1
    13    19    20    1
    14     4     5    2
    15     5     6    1
    16     6     7    2
    17     7     8    1
    18     8    21    1
    19    21    22    1
    20    22    28    1
    21    28    30    1
    22    30    31    1
    23    31    32    1
    24    31    34    1
    25    34    35   ar
    26    35    36   ar
    27    36    37   ar
    28    37    38   ar
    29    38    39    1
    30    38    40   ar
    31    22    23    2
    32    23    24    1
    33    24    25    2
    34    25    26    1
    35    26    27    2
    36     8     9    2
    37     9    10    1
    38    10     2    1
    39    16    11    1
    40    10     6    1
    41    20    14    1
    42    26    21    1
    43    40    34   ar
    44    28    29    1
    45    32    33    1
@<TRIPOS>MOLECULE
*****
 40 45 0 0 0
SMALL
GASTEIGER

@<TRIPOS>ATOM
      1 C          56.1877   91.1541    5.1844 C.3     1  UNL1        0.0312
      2 C          57.6462   91.3146    4.8730 C.2     1  UNL1        0.0136
      3 C          58.0779   92.1867    3.7315 C.2     1  UNL1        0.0107
      4 C          59.5364   92.3471    3.4203 C.2     1  UNL1        0.0509
      5 C          60.5632   91.6353    4.2504 C.2     1  UNL1        0.0613
      6 C          60.1315   90.7632    5.3918 C.2     1  UNL1        0.2246
      7 N          60.9089   89.9430    6.3782 N.2     1  UNL1       -0.0378
      8 C          59.9309   89.2758    7.2991 C.2     1  UNL1        0.3605
      9 N          58.5490   89.6835    6.8819 N.2     1  UNL1       -0.0547
     10 C          58.6730   90.6028    5.7031 C.3     1  UNL1        0.2976
     11 N          59.9683   93.2192    2.2788 N.pl3   1  UNL1       -0.3071
     12 C          59.8526   92.7211    0.8687 C.3     1  UNL1        0.0958
     13 C          60.2845   93.5933   -0.2727 C.3     1  UNL1        0.0776
     14 C          60.8320   94.9637   -0.0040 C.3     1  UNL1        0.1905
     15 C          60.9476   95.4619    1.4061 C.3     1  UNL1        0.0776
     16 C          60.5158   94.5896    2.5475 C.3     1  UNL1        0.0958
     17 O          61.3955   96.3491    0.1093 O.3     1  UNL1       -0.3315
     18 C          61.6879   96.8452   -1.2758 C.3     1  UNL1        0.1767
     19 C          61.3050   95.7664   -2.2451 C.3     1  UNL1        0.1767
     20 O          60.7760   94.6035   -1.4590 O.3     1  UNL1       -0.3315
     21 C          60.2744   88.3612    8.4375 C.3     1  UNL1        0.2246
     22 C          60.9264   88.9117    9.6712 C.2     1  UNL1        0.0436
     23 C          61.2700   87.9972   10.8095 C.2     1  UNL1        0.0288
     24 C          60.9616   86.5324   10.7140 C.2     1  UNL1        0.0896
     25 N          60.3096   85.9820    9.4803 N.am    1  UNL1       -0.1770
     26 C          59.9660   86.8964    8.3420 C.2     1  UNL1        0.2627
     27 O          59.3140   86.3460    7.1083 O.2     1  UNL1       -0.2719
     28 N          61.2348   90.3765    9.7665 N.pl3   1  UNL1       -0.3329
     29 H          60.5299   91.0405    9.5893 H       1  UNL1        0.1466
     30 C          62.6173   90.8297   10.1319 C.3     1  UNL1        0.1211
     31 C          63.0072   90.9597   11.5744 C.3     1  UNL1        0.1522
     32 O          62.0717   90.4915   12.6493 O.3     1  UNL1       -0.3783
     33 H          62.4739   90.6469   13.5182 H       1  UNL1        0.2109
     34 C          64.3328   91.5580   11.9420 C.ar    1  UNL1        0.0067
     35 C          65.0504   92.4461   10.9695 C.ar    1  UNL1       -0.0018
     36 C          66.3760   93.0444   11.3371 C.ar    1  UNL1        0.0006
     37 C          66.9837   92.7545   12.6775 C.ar    1  UNL1        0.0114
     38 C          66.2660   91.8663   13.6501 C.ar    1  UNL1        0.0574
     39 CL         66.8737   91.5763   14.9905 Cl      1  UNL1       -0.0823
     40 C          64.9405   91.2680   13.2824 C.ar    1  UNL1        0.0095
@<TRIPOS>BOND
     1     1     2    1
     2     2     3    2
     3     3     4    1
     4     4    11    1
     5    11    12    1
     6    12    13    1
     7    13    14    1
     8    14    15    1
     9    15    16    1
    10    14    17    1
    11    17    18    1
    12    18    19    1
    13    19    20    1
    14     4     5    2
    15     5     6    1
    16     6     7    2
    17     7     8    1
    18     8    21    1
    19    21    22    1
    20    22    28    1
    21    28    30    1
    22    30    31    1
    23    31    32    1
    24    31    34    1
    25    34    35   ar
    26    35    36   ar
    27    36    37   ar
    28    37    38   ar
    29    38    39    1
    30    38    40   ar
    31    22    23    2
    32    23    24    1
    33    24    25    2
    34    25    26    1
    35    26    27    2
    36     8     9    2
    37     9    10    1
    38    10     2    1
    39    16    11    1
    40    10     6    1
    41    20    14    1
    42    26    21    1
    43    40    34   ar
    44    28    29    1
    45    32    33    1
