@<TRIPOS>MOLECULE
*****
 35 38 0 0 0
SMALL
GASTEIGER

@<TRIPOS>ATOM
      1 N          63.7989   84.5638   14.3672 N.pl3   1  UNL1       -0.2777
      2 C          63.9452   83.2981   15.1587 C.3     1  UNL1        0.0936
      3 C          64.0449   81.9788   14.4519 C.3     1  UNL1        0.0221
      4 C          63.9983   81.9252   12.9536 C.3     1  UNL1        0.0126
      5 C          63.8519   83.1910   12.1620 C.3     1  UNL1        0.0963
      6 C          63.7522   84.5103   12.8689 C.3     1  UNL1        0.1026
      7 C          62.5725   87.3213   18.5971 C.3     1  UNL1        0.0547
      8 C          63.0860   87.2618   17.1890 C.ar    1  UNL1        0.0923
      9 N          63.1857   85.9426   16.4822 N.ar    1  UNL1       -0.2156
     10 C          63.6992   85.8831   15.0740 C.ar    1  UNL1        0.2211
     11 N          64.1129   87.1429   14.3728 N.ar    1  UNL1       -0.1963
     12 C          64.0132   88.4621   15.0796 C.ar    1  UNL1        0.1635
     13 C          63.4998   88.5215   16.4878 C.ar    1  UNL1        0.1850
     14 F          63.4000   89.8408   17.1946 F       1  UNL1       -0.2000
     15 N          64.4270   89.7219   14.3784 N.pl3   1  UNL1       -0.2885
     16 C          63.7219   90.1489   13.1252 C.3     1  UNL1        0.1096
     17 C          64.1357   91.4087   12.4239 C.3     1  UNL1        0.0939
     18 N          65.2545   92.2415   12.9759 N.3     1  UNL1       -0.2686
     19 C          65.6683   93.5013   12.2747 C.3     1  UNL1        0.0897
     20 C          65.9596   91.8144   14.2291 C.3     1  UNL1        0.0939
     21 C          65.5458   90.5546   14.9303 C.3     1  UNL1        0.1096
     22 C          63.8053   83.1375   10.6638 C.2     1  UNL1        0.2237
     23 O          64.3179   81.9277    9.9402 O.2     1  UNL1       -0.2751
     24 N          63.2460   84.2937    9.8891 N.am    1  UNL1       -0.3040
     25 H          62.9096   85.0878   10.3640 H       1  UNL1        0.1494
     26 C          63.1993   84.2403    8.3907 C.3     1  UNL1        0.0941
     27 C          62.3572   85.2219    7.6311 C.3     1  UNL1        0.0476
     28 C          61.7263   86.3798    8.3460 C.ar    1  UNL1       -0.0204
     29 C          62.5312   87.1888    9.3196 C.ar    1  UNL1       -0.0035
     30 C          61.9003   88.3468   10.0345 C.ar    1  UNL1        0.0100
     31 C          60.4646   88.6958    9.7759 C.ar    1  UNL1        0.0684
     32 C          59.6597   87.8868    8.8023 C.ar    1  UNL1        0.0100
     33 C          60.2906   86.7288    8.0874 C.ar    1  UNL1       -0.0035
     34 C          59.8337   89.8538   10.4908 C.1     1  UNL1        0.1004
     35 N          59.2029   91.0117   11.2058 N.1     1  UNL1       -0.1908
@<TRIPOS>BOND
     1     7     8    1
     2     8     9   ar
     3     9    10   ar
     4    10     1    1
     5     1     2    1
     6     2     3    1
     7     3     4    1
     8     4     5    1
     9     5    22    1
    10    22    23    2
    11    22    24   am
    12    24    26    1
    13    26    27    1
    14    27    28    1
    15    28    29   ar
    16    29    30   ar
    17    30    31   ar
    18    31    34    1
    19    34    35    3
    20    31    32   ar
    21    32    33   ar
    22     5     6    1
    23    10    11   ar
    24    11    12   ar
    25    12    15    1
    26    15    16    1
    27    16    17    1
    28    17    18    1
    29    18    19    1
    30    18    20    1
    31    20    21    1
    32    12    13   ar
    33    13    14    1
    34    13     8   ar
    35     6     1    1
    36    21    15    1
    37    33    28   ar
    38    24    25    1
@<TRIPOS>MOLECULE
*****
 35 38 0 0 0
SMALL
GASTEIGER

@<TRIPOS>ATOM
      1 N          62.2614   90.2385   11.4366 N.pl3   1  UNL1       -0.2777
      2 C          60.9180   90.7135   11.9053 C.3     1  UNL1        0.0936
      3 C          59.6749   89.9955   11.4704 C.3     1  UNL1        0.0221
      4 C          59.7752   88.8024   10.5667 C.3     1  UNL1        0.0126
      5 C          61.1186   88.3274   10.0980 C.3     1  UNL1        0.0963
      6 C          62.3617   89.0455   10.5330 C.3     1  UNL1        0.1026
      7 C          65.9965   91.0391   14.9591 C.3     1  UNL1        0.0547
      8 C          65.3720   91.3569   13.6328 C.ar    1  UNL1        0.0923
      9 N          64.1290   90.6388   13.1978 N.ar    1  UNL1       -0.2156
     10 C          63.5045   90.9566   11.8716 C.ar    1  UNL1        0.2211
     11 N          64.1230   91.9924   10.9803 N.ar    1  UNL1       -0.1963
     12 C          65.3660   92.7105   11.4152 C.ar    1  UNL1        0.1635
     13 C          65.9905   92.3927   12.7415 C.ar    1  UNL1        0.1850
     14 F          67.2336   93.1108   13.1765 F       1  UNL1       -0.2000
     15 N          65.9846   93.7464   10.5239 N.pl3   1  UNL1       -0.2885
     16 C          65.3961   95.1244   10.4548 C.3     1  UNL1        0.1096
     17 C          66.0147   96.1603    9.5635 C.3     1  UNL1        0.0939
     18 N          67.2217   95.8181    8.7414 N.3     1  UNL1       -0.2686
     19 C          67.8403   96.8539    7.8501 C.3     1  UNL1        0.0897
     20 C          67.8102   94.4400    8.8105 C.3     1  UNL1        0.0939
     21 C          67.1916   93.4042    9.7018 C.3     1  UNL1        0.1096
     22 C          61.2189   87.1343    9.1945 C.2     1  UNL1        0.2237
     23 O          59.9730   86.4747    8.6819 O.2     1  UNL1       -0.2751
     24 N          62.5652   86.6008    8.8034 N.am    1  UNL1       -0.3040
     25 H          63.3829   87.0338    9.1398 H       1  UNL1        0.1494
     26 C          62.6656   85.4077    7.8997 C.3     1  UNL1        0.0941
     27 C          63.3098   84.1459    8.3923 C.3     1  UNL1        0.0476
     28 C          63.4575   83.9049    9.8654 C.ar    1  UNL1       -0.0204
     29 C          62.6680   84.7248   10.8425 C.ar    1  UNL1       -0.0035
     30 C          62.8157   84.4839   12.3156 C.ar    1  UNL1        0.0100
     31 C          63.7529   83.4230   12.8117 C.ar    1  UNL1        0.0684
     32 C          64.5424   82.6031   11.8348 C.ar    1  UNL1        0.0100
     33 C          64.3947   82.8441   10.3616 C.ar    1  UNL1       -0.0035
     34 C          63.9006   83.1821   14.2849 C.1     1  UNL1        0.1004
     35 N          64.0483   82.9411   15.7580 N.1     1  UNL1       -0.1908
@<TRIPOS>BOND
     1     7     8    1
     2     8     9   ar
     3     9    10   ar
     4    10     1    1
     5     1     2    1
     6     2     3    1
     7     3     4    1
     8     4     5    1
     9     5    22    1
    10    22    23    2
    11    22    24   am
    12    24    26    1
    13    26    27    1
    14    27    28    1
    15    28    29   ar
    16    29    30   ar
    17    30    31   ar
    18    31    34    1
    19    34    35    3
    20    31    32   ar
    21    32    33   ar
    22     5     6    1
    23    10    11   ar
    24    11    12   ar
    25    12    15    1
    26    15    16    1
    27    16    17    1
    28    17    18    1
    29    18    19    1
    30    18    20    1
    31    20    21    1
    32    12    13   ar
    33    13    14    1
    34    13     8   ar
    35     6     1    1
    36    21    15    1
    37    33    28   ar
    38    24    25    1
@<TRIPOS>MOLECULE
*****
 35 38 0 0 0
SMALL
GASTEIGER

@<TRIPOS>ATOM
      1 N          62.8216   89.7165   11.1829 N.pl3   1  UNL1       -0.2777
      2 C          61.7404   90.1481   10.2369 C.3     1  UNL1        0.0936
      3 C          60.7966   89.1331    9.6634 C.3     1  UNL1        0.0221
      4 C          60.9339   87.6865   10.0358 C.3     1  UNL1        0.0126
      5 C          62.0151   87.2550   10.9818 C.3     1  UNL1        0.0963
      6 C          62.9589   88.2701   11.5553 C.3     1  UNL1        0.1026
      7 C          65.3235   91.7329   15.2663 C.3     1  UNL1        0.0547
      8 C          65.0164   91.7397   13.7981 C.ar    1  UNL1        0.0923
      9 N          64.0726   90.7248   13.2246 N.ar    1  UNL1       -0.2156
     10 C          63.7655   90.7316   11.7564 C.ar    1  UNL1        0.2211
     11 N          64.4021   91.7534   10.8617 N.ar    1  UNL1       -0.1963
     12 C          65.3459   92.7684   11.4353 C.ar    1  UNL1        0.1635
     13 C          65.6531   92.7616   12.9035 C.ar    1  UNL1        0.1850
     14 F          66.5969   93.7766   13.4770 F       1  UNL1       -0.2000
     15 N          65.9827   93.7903   10.5406 N.pl3   1  UNL1       -0.2885
     16 C          67.1448   93.4075    9.6729 C.3     1  UNL1        0.1096
     17 C          67.7815   94.4294    8.7783 C.3     1  UNL1        0.0939
     18 N          67.2561   95.8341    8.7513 N.3     1  UNL1       -0.2686
     19 C          67.8928   96.8559    7.8567 C.3     1  UNL1        0.0897
     20 C          66.0939   96.2169    9.6190 C.3     1  UNL1        0.0939
     21 C          65.4572   95.1950   10.5136 C.3     1  UNL1        0.1096
     22 C          62.1524   85.8085   11.3543 C.2     1  UNL1        0.2237
     23 O          61.2806   85.2239   12.4258 O.2     1  UNL1       -0.2751
     24 N          63.1616   84.9466   10.6552 N.am    1  UNL1       -0.3040
     25 H          63.7338   85.3304    9.9519 H       1  UNL1        0.1494
     26 C          63.2989   83.5001   11.0277 C.3     1  UNL1        0.0941
     27 C          64.0168   83.1148   12.2871 C.3     1  UNL1        0.0476
     28 C          63.7364   83.8490   13.5647 C.ar    1  UNL1       -0.0204
     29 C          64.5688   85.0375   13.9450 C.ar    1  UNL1       -0.0035
     30 C          64.2884   85.7717   15.2226 C.ar    1  UNL1        0.0100
     31 C          63.1756   85.3174   16.1199 C.ar    1  UNL1        0.0684
     32 C          62.3432   84.1289   15.7397 C.ar    1  UNL1        0.0100
     33 C          62.6236   83.3947   14.4621 C.ar    1  UNL1       -0.0035
     34 C          62.8952   86.0517   17.3976 C.1     1  UNL1        0.1004
     35 N          62.6148   86.7859   18.6752 N.1     1  UNL1       -0.1908
@<TRIPOS>BOND
     1     7     8    1
     2     8     9   ar
     3     9    10   ar
     4    10     1    1
     5     1     2    1
     6     2     3    1
     7     3     4    1
     8     4     5    1
     9     5    22    1
    10    22    23    2
    11    22    24   am
    12    24    26    1
    13    26    27    1
    14    27    28    1
    15    28    29   ar
    16    29    30   ar
    17    30    31   ar
    18    31    34    1
    19    34    35    3
    20    31    32   ar
    21    32    33   ar
    22     5     6    1
    23    10    11   ar
    24    11    12   ar
    25    12    15    1
    26    15    16    1
    27    16    17    1
    28    17    18    1
    29    18    19    1
    30    18    20    1
    31    20    21    1
    32    12    13   ar
    33    13    14    1
    34    13     8   ar
    35     6     1    1
    36    21    15    1
    37    33    28   ar
    38    24    25    1
@<TRIPOS>MOLECULE
*****
 35 38 0 0 0
SMALL
GASTEIGER

@<TRIPOS>ATOM
      1 N          62.2424   88.6628   10.8507 N.pl3   1  UNL1       -0.2777
      2 C          62.3528   87.2120   11.2153 C.3     1  UNL1        0.0936
      3 C          61.5528   86.1875   10.4666 C.3     1  UNL1        0.0221
      4 C          60.6425   86.6139    9.3533 C.3     1  UNL1        0.0126
      5 C          60.5321   88.0647    8.9887 C.3     1  UNL1        0.0963
      6 C          61.3321   89.0892    9.7374 C.3     1  UNL1        0.1026
      7 C          63.8534   90.7066   15.3482 C.3     1  UNL1        0.0547
      8 C          63.8479   90.7091   13.8483 C.ar    1  UNL1        0.0923
      9 N          63.0479   89.6847   13.0995 N.ar    1  UNL1       -0.2156
     10 C          63.0424   89.6872   11.5995 C.ar    1  UNL1        0.2211
     11 N          63.8369   90.7141   10.8483 N.ar    1  UNL1       -0.1963
     12 C          64.6368   91.7384   11.5970 C.ar    1  UNL1        0.1635
     13 C          64.6423   91.7360   13.0970 C.ar    1  UNL1        0.1850
     14 F          65.4424   92.7604   13.8458 F       1  UNL1       -0.2000
     15 N          65.4313   92.7654   10.8458 N.pl3   1  UNL1       -0.2885
     16 C          64.9751   94.1940   10.8186 C.3     1  UNL1        0.1096
     17 C          65.7696   95.2209   10.0674 C.3     1  UNL1        0.0939
     18 N          67.0204   94.8191    9.3434 N.3     1  UNL1       -0.2686
     19 C          67.8149   95.8460    8.5922 C.3     1  UNL1        0.0897
     20 C          67.4766   93.3904    9.3706 C.3     1  UNL1        0.0939
     21 C          66.6821   92.3636   10.1218 C.3     1  UNL1        0.1096
     22 C          59.6218   88.4911    7.8754 C.2     1  UNL1        0.2237
     23 O          58.3544   87.7336    7.6111 O.2     1  UNL1       -0.2751
     24 N          59.9789   89.6750    7.0264 N.am    1  UNL1       -0.3040
     25 H          60.8107   90.1722    7.1999 H       1  UNL1        0.1494
     26 C          59.0686   90.1015    5.9130 C.3     1  UNL1        0.0941
     27 C          59.1237   91.5086    5.3965 C.3     1  UNL1        0.0476
     28 C          60.1426   91.8889    4.3634 C.ar    1  UNL1       -0.0204
     29 C          61.4959   91.2419    4.3709 C.ar    1  UNL1       -0.0035
     30 C          62.5147   91.6222    3.3379 C.ar    1  UNL1        0.0100
     31 C          62.1803   92.6494    2.2972 C.ar    1  UNL1        0.0684
     32 C          60.8271   93.2963    2.2896 C.ar    1  UNL1        0.0100
     33 C          59.8082   92.9161    3.3227 C.ar    1  UNL1       -0.0035
     34 C          63.1993   93.0296    1.2641 C.1     1  UNL1        0.1004
     35 N          64.2182   93.4098    0.2310 N.1     1  UNL1       -0.1908
@<TRIPOS>BOND
     1     7     8    1
     2     8     9   ar
     3     9    10   ar
     4    10     1    1
     5     1     2    1
     6     2     3    1
     7     3     4    1
     8     4     5    1
     9     5    22    1
    10    22    23    2
    11    22    24   am
    12    24    26    1
    13    26    27    1
    14    27    28    1
    15    28    29   ar
    16    29    30   ar
    17    30    31   ar
    18    31    34    1
    19    34    35    3
    20    31    32   ar
    21    32    33   ar
    22     5     6    1
    23    10    11   ar
    24    11    12   ar
    25    12    15    1
    26    15    16    1
    27    16    17    1
    28    17    18    1
    29    18    19    1
    30    18    20    1
    31    20    21    1
    32    12    13   ar
    33    13    14    1
    34    13     8   ar
    35     6     1    1
    36    21    15    1
    37    33    28   ar
    38    24    25    1
@<TRIPOS>MOLECULE
*****
 35 38 0 0 0
SMALL
GASTEIGER

@<TRIPOS>ATOM
      1 N          63.7178   87.9021   15.3361 N.pl3   1  UNL1       -0.2777
      2 C          63.2373   88.0140   16.7526 C.3     1  UNL1        0.0936
      3 C          62.8767   86.7781   17.5222 C.3     1  UNL1        0.0221
      4 C          62.9966   85.4300   16.8752 C.3     1  UNL1        0.0126
      5 C          63.4771   85.3180   15.4587 C.3     1  UNL1        0.0963
      6 C          63.8377   86.5541   14.6891 C.3     1  UNL1        0.1026
      7 C          62.7732   91.2187   11.4492 C.3     1  UNL1        0.0547
      8 C          63.6061   90.7964   12.6231 C.ar    1  UNL1        0.0923
      9 N          63.2455   89.5604   13.3927 N.ar    1  UNL1       -0.2156
     10 C          64.0784   89.1381   14.5665 C.ar    1  UNL1        0.2211
     11 N          65.2719   89.9518   14.9708 N.ar    1  UNL1       -0.1963
     12 C          65.6324   91.1878   14.2012 C.ar    1  UNL1        0.1635
     13 C          64.7995   91.6101   13.0274 C.ar    1  UNL1        0.1850
     14 F          65.1601   92.8462   12.2578 F       1  UNL1       -0.2000
     15 N          66.8260   92.0016   14.6055 N.pl3   1  UNL1       -0.2885
     16 C          68.1321   91.8240   13.8897 C.3     1  UNL1        0.1096
     17 C          69.3256   92.6378   14.2940 C.3     1  UNL1        0.0939
     18 N          69.2129   93.6291   15.4141 N.3     1  UNL1       -0.2686
     19 C          70.4064   94.4429   15.8183 C.3     1  UNL1        0.0897
     20 C          67.9067   93.8067   16.1299 C.3     1  UNL1        0.0939
     21 C          66.7133   92.9929   15.7256 C.3     1  UNL1        0.1096
     22 C          63.5970   83.9701   14.8117 C.2     1  UNL1        0.2237
     23 O          62.7854   82.8174   15.3241 O.2     1  UNL1       -0.2751
     24 N          64.5284   83.7749   13.6523 N.am    1  UNL1       -0.3040
     25 H          65.0611   84.5315   13.3160 H       1  UNL1        0.1494
     26 C          64.6483   82.4269   13.0053 C.3     1  UNL1        0.0941
     27 C          64.2302   82.2407   11.5768 C.3     1  UNL1        0.0476
     28 C          63.5028   83.3388   10.8592 C.ar    1  UNL1       -0.0204
     29 C          63.8241   83.6389    9.4250 C.ar    1  UNL1       -0.0035
     30 C          63.0967   84.7369    8.7073 C.ar    1  UNL1        0.0100
     31 C          62.0480   85.5350    9.4237 C.ar    1  UNL1        0.0684
     32 C          61.7267   85.2350   10.8578 C.ar    1  UNL1        0.0100
     33 C          62.4541   84.1369   11.5756 C.ar    1  UNL1       -0.0035
     34 C          61.3206   86.6332    8.7060 C.1     1  UNL1        0.1004
     35 N          60.5933   87.7313    7.9883 N.1     1  UNL1       -0.1908
@<TRIPOS>BOND
     1     7     8    1
     2     8     9   ar
     3     9    10   ar
     4    10     1    1
     5     1     2    1
     6     2     3    1
     7     3     4    1
     8     4     5    1
     9     5    22    1
    10    22    23    2
    11    22    24   am
    12    24    26    1
    13    26    27    1
    14    27    28    1
    15    28    29   ar
    16    29    30   ar
    17    30    31   ar
    18    31    34    1
    19    34    35    3
    20    31    32   ar
    21    32    33   ar
    22     5     6    1
    23    10    11   ar
    24    11    12   ar
    25    12    15    1
    26    15    16    1
    27    16    17    1
    28    17    18    1
    29    18    19    1
    30    18    20    1
    31    20    21    1
    32    12    13   ar
    33    13    14    1
    34    13     8   ar
    35     6     1    1
    36    21    15    1
    37    33    28   ar
    38    24    25    1
@<TRIPOS>MOLECULE
*****
 35 38 0 0 0
SMALL
GASTEIGER

@<TRIPOS>ATOM
      1 N          63.2900   85.6593   13.8615 N.pl3   1  UNL1       -0.2777
      2 C          63.3268   84.5624   14.8840 C.3     1  UNL1        0.0936
      3 C          63.4868   84.8969   16.3374 C.3     1  UNL1        0.0221
      4 C          63.6100   86.3284   16.7684 C.3     1  UNL1        0.0126
      5 C          63.5732   87.4253   15.7459 C.3     1  UNL1        0.0963
      6 C          63.4132   87.0907   14.2924 C.3     1  UNL1        0.1026
      7 C          64.3629   82.5947    9.8047 C.3     1  UNL1        0.0547
      8 C          63.6664   83.7924   10.3797 C.ar    1  UNL1        0.0923
      9 N          63.8264   84.1270   11.8331 N.ar    1  UNL1       -0.2156
     10 C          63.1300   85.3246   12.4080 C.ar    1  UNL1        0.2211
     11 N          62.2735   86.1876   11.5296 N.ar    1  UNL1       -0.1963
     12 C          62.1135   85.8530   10.0763 C.ar    1  UNL1        0.1635
     13 C          62.8100   84.6554    9.5013 C.ar    1  UNL1        0.1850
     14 F          62.6499   84.3207    8.0478 F       1  UNL1       -0.2000
     15 N          61.2569   86.7160    9.1978 N.pl3   1  UNL1       -0.2885
     16 C          61.2365   88.2025    9.3974 C.3     1  UNL1        0.1096
     17 C          60.3800   89.0655    8.5189 C.3     1  UNL1        0.0939
     18 N          59.5439   88.4419    7.4408 N.3     1  UNL1       -0.2686
     19 C          58.6874   89.3048    6.5623 C.3     1  UNL1        0.0897
     20 C          59.5644   86.9553    7.2412 C.3     1  UNL1        0.0939
     21 C          60.4209   86.0924    8.1197 C.3     1  UNL1        0.1096
     22 C          63.6965   88.8568   16.1768 C.2     1  UNL1        0.2237
     23 O          63.2817   89.2619   17.5602 O.2     1  UNL1       -0.2751
     24 N          64.2344   89.8830   15.2243 N.am    1  UNL1       -0.3040
     25 H          64.5066   89.6171   14.3163 H       1  UNL1        0.1494
     26 C          64.3577   91.3146   15.6552 C.3     1  UNL1        0.0941
     27 C          65.6353   92.0628   15.4150 C.3     1  UNL1        0.0476
     28 C          66.2342   92.1022   14.0403 C.ar    1  UNL1       -0.0204
     29 C          65.3801   92.4595   12.8600 C.ar    1  UNL1       -0.0035
     30 C          65.9790   92.4989   11.4854 C.ar    1  UNL1        0.0100
     31 C          67.4319   92.1810   11.2909 C.ar    1  UNL1        0.0684
     32 C          68.2860   91.8237   12.4710 C.ar    1  UNL1        0.0100
     33 C          67.6871   91.7843   13.8458 C.ar    1  UNL1       -0.0035
     34 C          68.0308   92.2203    9.9161 C.1     1  UNL1        0.1004
     35 N          68.6296   92.2597    8.5414 N.1     1  UNL1       -0.1908
@<TRIPOS>BOND
     1     7     8    1
     2     8     9   ar
     3     9    10   ar
     4    10     1    1
     5     1     2    1
     6     2     3    1
     7     3     4    1
     8     4     5    1
     9     5    22    1
    10    22    23    2
    11    22    24   am
    12    24    26    1
    13    26    27    1
    14    27    28    1
    15    28    29   ar
    16    29    30   ar
    17    30    31   ar
    18    31    34    1
    19    34    35    3
    20    31    32   ar
    21    32    33   ar
    22     5     6    1
    23    10    11   ar
    24    11    12   ar
    25    12    15    1
    26    15    16    1
    27    16    17    1
    28    17    18    1
    29    18    19    1
    30    18    20    1
    31    20    21    1
    32    12    13   ar
    33    13    14    1
    34    13     8   ar
    35     6     1    1
    36    21    15    1
    37    33    28   ar
    38    24    25    1
@<TRIPOS>MOLECULE
*****
 35 38 0 0 0
SMALL
GASTEIGER

@<TRIPOS>ATOM
      1 N          63.6113   89.3984   12.4557 N.pl3   1  UNL1       -0.2777
      2 C          63.8777   88.0793   13.1183 C.3     1  UNL1        0.0936
      3 C          63.1074   86.8616   12.7016 C.3     1  UNL1        0.0221
      4 C          62.0707   86.9629   11.6222 C.3     1  UNL1        0.0126
      5 C          61.8043   88.2820   10.9596 C.3     1  UNL1        0.0963
      6 C          62.5747   89.4998   11.3764 C.3     1  UNL1        0.1026
      7 C          65.7493   92.3107   16.1904 C.3     1  UNL1        0.0547
      8 C          65.4507   92.0723   14.7399 C.ar    1  UNL1        0.0923
      9 N          64.6803   90.8546   14.3231 N.ar    1  UNL1       -0.2156
     10 C          64.3817   90.6162   12.8726 C.ar    1  UNL1        0.2211
     11 N          64.8535   91.5954   11.8389 N.ar    1  UNL1       -0.1963
     12 C          65.6238   92.8131   12.2557 C.ar    1  UNL1        0.1635
     13 C          65.9224   93.0515   13.7062 C.ar    1  UNL1        0.1850
     14 F          66.6928   94.2693   14.1230 F       1  UNL1       -0.2000
     15 N          66.0956   93.7924   11.2220 N.pl3   1  UNL1       -0.2885
     16 C          65.7382   95.2439   11.3456 C.3     1  UNL1        0.1096
     17 C          66.2099   96.2232   10.3119 C.3     1  UNL1        0.0939
     18 N          67.0391   95.7509    9.1546 N.3     1  UNL1       -0.2686
     19 C          67.5109   96.7301    8.1210 C.3     1  UNL1        0.0897
     20 C          67.3966   94.2993    9.0310 C.3     1  UNL1        0.0939
     21 C          66.9248   93.3201   10.0647 C.3     1  UNL1        0.1096
     22 C          60.7676   88.3834    9.8803 C.2     1  UNL1        0.2237
     23 O          60.0689   87.1487    9.3932 O.2     1  UNL1       -0.2751
     24 N          60.4296   89.7195    9.2882 N.am    1  UNL1       -0.3040
     25 H          60.8882   90.5298    9.6080 H       1  UNL1        0.1494
     26 C          59.3929   89.8209    8.2089 C.3     1  UNL1        0.0941
     27 C          59.7243   89.3980    6.8084 C.3     1  UNL1        0.0476
     28 C          59.7790   90.4181    5.7101 C.ar    1  UNL1       -0.0204
     29 C          58.5202   91.0894    5.2466 C.ar    1  UNL1       -0.0035
     30 C          58.5749   92.1094    4.1482 C.ar    1  UNL1        0.0100
     31 C          59.8884   92.4582    3.5133 C.ar    1  UNL1        0.0684
     32 C          61.1471   91.7870    3.9767 C.ar    1  UNL1        0.0100
     33 C          61.0925   90.7668    5.0751 C.ar    1  UNL1       -0.0035
     34 C          59.9430   93.4783    2.4148 C.1     1  UNL1        0.1004
     35 N          59.9976   94.4984    1.3165 N.1     1  UNL1       -0.1908
@<TRIPOS>BOND
     1     7     8    1
     2     8     9   ar
     3     9    10   ar
     4    10     1    1
     5     1     2    1
     6     2     3    1
     7     3     4    1
     8     4     5    1
     9     5    22    1
    10    22    23    2
    11    22    24   am
    12    24    26    1
    13    26    27    1
    14    27    28    1
    15    28    29   ar
    16    29    30   ar
    17    30    31   ar
    18    31    34    1
    19    34    35    3
    20    31    32   ar
    21    32    33   ar
    22     5     6    1
    23    10    11   ar
    24    11    12   ar
    25    12    15    1
    26    15    16    1
    27    16    17    1
    28    17    18    1
    29    18    19    1
    30    18    20    1
    31    20    21    1
    32    12    13   ar
    33    13    14    1
    34    13     8   ar
    35     6     1    1
    36    21    15    1
    37    33    28   ar
    38    24    25    1
@<TRIPOS>MOLECULE
*****
 35 38 0 0 0
SMALL
GASTEIGER

@<TRIPOS>ATOM
      1 N          63.1747   86.0545   15.4405 N.pl3   1  UNL1       -0.2777
      2 C          62.7554   85.7095   16.8388 C.3     1  UNL1        0.0936
      3 C          62.7244   86.7727   17.8964 C.3     1  UNL1        0.0221
      4 C          63.1128   88.1810   17.5558 C.3     1  UNL1        0.0126
      5 C          63.5322   88.5260   16.1575 C.3     1  UNL1        0.0963
      6 C          63.5631   87.4627   15.0999 C.3     1  UNL1        0.1026
      7 C          64.0071   81.1192   14.0443 C.3     1  UNL1        0.0547
      8 C          63.6219   82.5236   13.6848 C.ar    1  UNL1        0.0923
      9 N          63.5909   83.5868   14.7423 N.ar    1  UNL1       -0.2156
     10 C          63.2057   84.9912   14.3829 C.ar    1  UNL1        0.2211
     11 N          62.8514   85.3324   12.9658 N.ar    1  UNL1       -0.1963
     12 C          62.8823   84.2691   11.9083 C.ar    1  UNL1        0.1635
     13 C          63.2676   82.8647   12.2677 C.ar    1  UNL1        0.1850
     14 F          63.2985   81.8014   11.2101 F       1  UNL1       -0.2000
     15 N          62.5280   84.6102   10.4911 N.pl3   1  UNL1       -0.2885
     16 C          63.3590   84.0781    9.3614 C.3     1  UNL1        0.1096
     17 C          63.0046   84.4192    7.9443 C.3     1  UNL1        0.0939
     18 N          61.8194   85.2925    7.6570 N.3     1  UNL1       -0.2686
     19 C          61.4651   85.6336    6.2399 C.3     1  UNL1        0.0897
     20 C          60.9884   85.8246    8.7868 C.3     1  UNL1        0.0939
     21 C          61.3428   85.4835   10.2038 C.3     1  UNL1        0.1096
     22 C          63.9206   89.9342   15.8169 C.2     1  UNL1        0.2237
     23 O          63.5044   91.0642   16.7112 O.2     1  UNL1       -0.2751
     24 N          64.7251   90.2124   14.5819 N.am    1  UNL1       -0.3040
     25 H          64.9982   89.4707   13.9949 H       1  UNL1        0.1494
     26 C          65.1135   91.6207   14.2412 C.3     1  UNL1        0.0941
     27 C          66.4630   91.9046   13.6510 C.3     1  UNL1        0.0476
     28 C          66.5932   92.8612   12.5030 C.ar    1  UNL1       -0.0204
     29 C          67.0952   92.3758   11.1754 C.ar    1  UNL1       -0.0035
     30 C          67.2254   93.3325   10.0275 C.ar    1  UNL1        0.0100
     31 C          66.8538   94.7746   10.2071 C.ar    1  UNL1        0.0684
     32 C          66.3519   95.2600   11.5347 C.ar    1  UNL1        0.0100
     33 C          66.2216   94.3033   12.6827 C.ar    1  UNL1       -0.0035
     34 C          66.9841   95.7313    9.0591 C.1     1  UNL1        0.1004
     35 N          67.1144   96.6879    7.9112 N.1     1  UNL1       -0.1908
@<TRIPOS>BOND
     1     7     8    1
     2     8     9   ar
     3     9    10   ar
     4    10     1    1
     5     1     2    1
     6     2     3    1
     7     3     4    1
     8     4     5    1
     9     5    22    1
    10    22    23    2
    11    22    24   am
    12    24    26    1
    13    26    27    1
    14    27    28    1
    15    28    29   ar
    16    29    30   ar
    17    30    31   ar
    18    31    34    1
    19    34    35    3
    20    31    32   ar
    21    32    33   ar
    22     5     6    1
    23    10    11   ar
    24    11    12   ar
    25    12    15    1
    26    15    16    1
    27    16    17    1
    28    17    18    1
    29    18    19    1
    30    18    20    1
    31    20    21    1
    32    12    13   ar
    33    13    14    1
    34    13     8   ar
    35     6     1    1
    36    21    15    1
    37    33    28   ar
    38    24    25    1
@<TRIPOS>MOLECULE
*****
 35 38 0 0 0
SMALL
GASTEIGER

@<TRIPOS>ATOM
      1 N          63.1386   85.9784   15.5888 N.pl3   1  UNL1       -0.2777
      2 C          62.7174   85.6266   16.9848 C.3     1  UNL1        0.0936
      3 C          62.6907   86.6834   18.0489 C.3     1  UNL1        0.0221
      4 C          63.0853   88.0921   17.7170 C.3     1  UNL1        0.0126
      5 C          63.5065   88.4438   16.3210 C.3     1  UNL1        0.0963
      6 C          63.5332   87.3869   15.2569 C.3     1  UNL1        0.1026
      7 C          63.8812   81.0336   14.1754 C.3     1  UNL1        0.0547
      8 C          63.5366   82.4490   13.8180 C.ar    1  UNL1        0.0923
      9 N          63.5099   83.5059   14.8820 N.ar    1  UNL1       -0.2156
     10 C          63.1653   84.9214   14.5247 C.ar    1  UNL1        0.2211
     11 N          62.8474   85.2800   13.1033 N.ar    1  UNL1       -0.1963
     12 C          62.8741   84.2231   12.0393 C.ar    1  UNL1        0.1635
     13 C          63.2187   82.8076   12.3967 C.ar    1  UNL1        0.1850
     14 F          63.2454   81.7507   11.3325 F       1  UNL1       -0.2000
     15 N          62.5562   84.5816   10.6179 N.pl3   1  UNL1       -0.2885
     16 C          61.3938   85.4792   10.3128 C.3     1  UNL1        0.1096
     17 C          61.0759   85.8378    8.8913 C.3     1  UNL1        0.0939
     18 N          61.9205   85.2987    7.7750 N.3     1  UNL1       -0.2686
     19 C          61.6027   85.6572    6.3536 C.3     1  UNL1        0.0897
     20 C          63.0830   84.4011    8.0802 C.3     1  UNL1        0.0939
     21 C          63.4008   84.0426    9.5016 C.3     1  UNL1        0.1096
     22 C          63.9010   89.8524   15.9891 C.2     1  UNL1        0.2237
     23 O          63.2570   91.0008   16.7077 O.2     1  UNL1       -0.2751
     24 N          64.9396   90.1126   14.9386 N.am    1  UNL1       -0.3040
     25 H          65.3623   89.3588   14.4670 H       1  UNL1        0.1494
     26 C          65.3342   91.5212   14.6066 C.3     1  UNL1        0.0941
     27 C          65.2186   92.0200   13.1968 C.3     1  UNL1        0.0476
     28 C          64.1802   91.4441   12.2803 C.ar    1  UNL1       -0.0204
     29 C          64.1758   91.8125   10.8262 C.ar    1  UNL1       -0.0035
     30 C          63.1374   91.2365    9.9098 C.ar    1  UNL1        0.0100
     31 C          62.1033   90.2922   10.4473 C.ar    1  UNL1        0.0684
     32 C          62.1077   89.9237   11.9013 C.ar    1  UNL1        0.0100
     33 C          63.1462   90.4997   12.8179 C.ar    1  UNL1       -0.0035
     34 C          61.0649   89.7162    9.5307 C.1     1  UNL1        0.1004
     35 N          60.0265   89.1403    8.6143 N.1     1  UNL1       -0.1908
@<TRIPOS>BOND
     1     7     8    1
     2     8     9   ar
     3     9    10   ar
     4    10     1    1
     5     1     2    1
     6     2     3    1
     7     3     4    1
     8     4     5    1
     9     5    22    1
    10    22    23    2
    11    22    24   am
    12    24    26    1
    13    26    27    1
    14    27    28    1
    15    28    29   ar
    16    29    30   ar
    17    30    31   ar
    18    31    34    1
    19    34    35    3
    20    31    32   ar
    21    32    33   ar
    22     5     6    1
    23    10    11   ar
    24    11    12   ar
    25    12    15    1
    26    15    16    1
    27    16    17    1
    28    17    18    1
    29    18    19    1
    30    18    20    1
    31    20    21    1
    32    12    13   ar
    33    13    14    1
    34    13     8   ar
    35     6     1    1
    36    21    15    1
    37    33    28   ar
    38    24    25    1
