@<TRIPOS>MOLECULE
*****
 37 40 0 0 0
SMALL
GASTEIGER

@<TRIPOS>ATOM
      1 C          62.7159   89.5914   11.7276 C.ar    1  UNL1        0.1823
      2 O          62.3455   90.4956   10.5895 O.2     1  UNL1       -0.3532
      3 N          62.0025   89.6372    9.4082 N.ar    1  UNL1       -0.0807
      4 C          62.1609   88.2024    9.8162 C.ar    1  UNL1        0.1103
      5 C          62.6019   88.1742   11.2496 C.ar    1  UNL1        0.0884
      6 BR         62.8799   86.9445   12.0624 Br      1  UNL1       -0.0444
      7 C          61.9207   87.0060    8.9439 C.3     1  UNL1        0.0883
      8 C          63.0776   86.1716    8.4801 C.3     1  UNL1        0.0773
      9 N          62.8373   84.9752    7.6078 N.3     1  UNL1       -0.2970
     10 C          61.4401   84.6133    7.1993 C.3     1  UNL1        0.0714
     11 C          60.2832   85.4477    7.6632 C.3     1  UNL1        0.0486
     12 C          60.5234   86.6441    8.5355 C.3     1  UNL1        0.1149
     13 O          59.0295   86.7051    8.4155 O.3     1  UNL1       -0.3822
     14 H          63.2176   84.1686    8.1030 H       1  UNL1        0.1233
     15 H          58.7193   85.9710    7.8625 H       1  UNL1        0.2107
     16 C          60.2449   87.8617    9.3661 C.ar    1  UNL1        0.0045
     17 C          60.2437   89.2198    8.7294 C.ar    1  UNL1        0.0004
     18 C          59.9652   90.4374    9.5601 C.ar    1  UNL1        0.0317
     19 C          59.6879   90.2967   11.0276 C.ar    1  UNL1        0.1674
     20 F          59.4094   91.5143   11.8582 F       1  UNL1       -0.2018
     21 C          59.6891   88.9386   11.6643 C.ar    1  UNL1        0.1671
     22 F          59.4118   88.7980   13.1317 F       1  UNL1       -0.2018
     23 C          59.9676   87.7211   10.8336 C.ar    1  UNL1        0.0299
     24 C          64.1653   91.0984   13.2698 C.ar    1  UNL1       -0.0152
     25 C          64.5774   91.5348   14.6445 C.ar    1  UNL1        0.0255
     26 C          63.9523   90.9006   15.8516 C.ar    1  UNL1        0.1398
     27 F          64.3644   91.3370   17.2263 F       1  UNL1       -0.2042
     28 C          62.9151   89.8301   15.6840 C.ar    1  UNL1        0.0297
     29 C          62.5030   89.3937   14.3094 C.ar    1  UNL1        0.0051
     30 C          63.1281   90.0279   13.1023 C.ar    1  UNL1        0.0340
     31 C          64.7904   91.7326   12.0627 C.3     1  UNL1        0.0478
     32 C          65.9254   92.6994   12.2265 C.3     1  UNL1        0.0941
     33 C          66.4263   96.2164   10.4574 C.3     1  UNL1        0.0946
     34 C          66.6125   94.7728   10.8197 C.2     1  UNL1        0.2230
     35 O          67.6720   93.9590   10.1377 O.2     1  UNL1       -0.2751
     36 N          65.7392   94.1430   11.8641 N.am    1  UNL1       -0.3040
     37 H          65.0438   94.6771   12.3118 H       1  UNL1        0.1494
@<TRIPOS>BOND
     1    33    34    1
     2    34    35    2
     3    34    36   am
     4    36    32    1
     5    32    31    1
     6    31    24    1
     7    24    25   ar
     8    25    26   ar
     9    26    27    1
    10    26    28   ar
    11    28    29   ar
    12    29    30   ar
    13    30     1    1
    14     1     2   ar
    15     2     3   ar
    16     3     4   ar
    17     7     4    1
    18     7     8    1
    19     8     9    1
    20     9    10    1
    21    10    11    1
    22    11    12    1
    23    12    13    1
    24    12    16    1
    25    16    17   ar
    26    17    18   ar
    27    18    19   ar
    28    19    20    1
    29    19    21   ar
    30    21    22    1
    31    21    23   ar
    32     4     5   ar
    33     5     6    1
    34    30    24   ar
    35     5     1   ar
    36    12     7    1
    37    23    16   ar
    38    36    37    1
    39     9    14    1
    40    13    15    1
@<TRIPOS>MOLECULE
*****
 37 40 0 0 0
SMALL
GASTEIGER

@<TRIPOS>ATOM
      1 C          62.8055   88.4509   11.9521 C.ar    1  UNL1        0.1823
      2 O          63.0081   89.5154   10.9150 O.2     1  UNL1       -0.3532
      3 N          62.7154   88.9155    9.5717 N.ar    1  UNL1       -0.0807
      4 C          62.3318   87.4802    9.7786 C.ar    1  UNL1        0.1103
      5 C          62.3875   87.1931   11.2498 C.ar    1  UNL1        0.0884
      6 BR         62.0793   85.8788   11.9039 Br      1  UNL1       -0.0444
      7 C          61.9581   86.5036    8.7032 C.3     1  UNL1        0.0883
      8 C          62.9534   85.4818    8.2392 C.3     1  UNL1        0.0773
      9 N          62.5797   84.5052    7.1638 N.3     1  UNL1       -0.2970
     10 C          61.2107   84.5503    6.5524 C.3     1  UNL1        0.0714
     11 C          60.2154   85.5721    7.0164 C.3     1  UNL1        0.0486
     12 C          60.5891   86.5487    8.0918 C.3     1  UNL1        0.1149
     13 O          59.1799   86.9858    7.8213 O.3     1  UNL1       -0.3822
     14 H          62.6945   83.5724    7.5603 H       1  UNL1        0.1233
     15 H          58.7963   86.4284    7.1263 H       1  UNL1        0.2107
     16 C          60.4734   87.6772    9.0733 C.ar    1  UNL1        0.0045
     17 C          60.8997   89.0603    8.6796 C.ar    1  UNL1        0.0004
     18 C          60.7840   90.1887    9.6611 C.ar    1  UNL1        0.0317
     19 C          60.2420   89.9339   11.0364 C.ar    1  UNL1        0.1674
     20 F          60.1264   91.0623   12.0179 F       1  UNL1       -0.2018
     21 C          59.8157   88.5506   11.4301 C.ar    1  UNL1        0.1671
     22 F          59.2738   88.2959   12.8053 F       1  UNL1       -0.2018
     23 C          59.9314   87.4223   10.4486 C.ar    1  UNL1        0.0299
     24 C          63.6786   87.5457   14.2255 C.ar    1  UNL1       -0.0152
     25 C          63.8618   87.7101   15.7052 C.ar    1  UNL1        0.0255
     26 C          63.3551   88.9441   16.3911 C.ar    1  UNL1        0.1398
     27 F          63.5383   89.1085   17.8708 F       1  UNL1       -0.2042
     28 C          62.6652   90.0137   15.5974 C.ar    1  UNL1        0.0297
     29 C          62.4821   89.8493   14.1178 C.ar    1  UNL1        0.0051
     30 C          62.9887   88.6153   13.4318 C.ar    1  UNL1        0.0340
     31 C          64.1853   86.3117   13.5396 C.3     1  UNL1        0.0478
     32 C          64.6731   85.1488   14.3518 C.3     1  UNL1        0.0941
     33 C          62.1000   82.1285   14.4326 C.3     1  UNL1        0.0946
     34 C          62.6944   83.4900   14.6398 C.2     1  UNL1        0.2230
     35 O          61.9044   84.5543   15.3421 O.2     1  UNL1       -0.2751
     36 N          64.0788   83.7873   14.1446 N.am    1  UNL1       -0.3040
     37 H          64.5973   83.0888   13.6837 H       1  UNL1        0.1494
@<TRIPOS>BOND
     1    33    34    1
     2    34    35    2
     3    34    36   am
     4    36    32    1
     5    32    31    1
     6    31    24    1
     7    24    25   ar
     8    25    26   ar
     9    26    27    1
    10    26    28   ar
    11    28    29   ar
    12    29    30   ar
    13    30     1    1
    14     1     2   ar
    15     2     3   ar
    16     3     4   ar
    17     7     4    1
    18     7     8    1
    19     8     9    1
    20     9    10    1
    21    10    11    1
    22    11    12    1
    23    12    13    1
    24    12    16    1
    25    16    17   ar
    26    17    18   ar
    27    18    19   ar
    28    19    20    1
    29    19    21   ar
    30    21    22    1
    31    21    23   ar
    32     4     5   ar
    33     5     6    1
    34    30    24   ar
    35     5     1   ar
    36    12     7    1
    37    23    16   ar
    38    36    37    1
    39     9    14    1
    40    13    15    1
@<TRIPOS>MOLECULE
*****
 37 40 0 0 0
SMALL
GASTEIGER

@<TRIPOS>ATOM
      1 C          62.7531   89.2349   11.4762 C.ar    1  UNL1        0.1823
      2 O          63.3799   88.0987   10.7238 O.2     1  UNL1       -0.3532
      3 N          62.5786   87.8705    9.4765 N.ar    1  UNL1       -0.0807
      4 C          61.4564   88.8658    9.4580 C.ar    1  UNL1        0.1103
      5 C          61.5643   89.7090   10.6938 C.ar    1  UNL1        0.0884
      6 BR         60.6448   90.8295   11.0796 Br      1  UNL1       -0.0444
      7 C          60.4101   88.9950    8.3910 C.3     1  UNL1        0.0883
      8 C          60.3484   90.2337    7.5473 C.3     1  UNL1        0.0773
      9 N          59.3021   90.3630    6.4803 N.3     1  UNL1       -0.2970
     10 C          58.3175   89.2536    6.2569 C.3     1  UNL1        0.0714
     11 C          58.3793   88.0149    7.1006 C.3     1  UNL1        0.0486
     12 C          59.4256   87.8856    8.1676 C.3     1  UNL1        0.1149
     13 O          58.7192   86.5730    8.3351 O.3     1  UNL1       -0.3822
     14 H          59.7961   90.5002    5.5985 H       1  UNL1        0.1233
     15 H          57.9952   86.5112    7.6926 H       1  UNL1        0.2107
     16 C          60.2266   87.3005    9.2928 C.ar    1  UNL1        0.0045
     17 C          59.9102   87.6720   10.7111 C.ar    1  UNL1        0.0004
     18 C          60.7112   87.0869   11.8363 C.ar    1  UNL1        0.0317
     19 C          61.8287   86.1302   11.5431 C.ar    1  UNL1        0.1674
     20 F          62.6297   85.5451   12.6682 F       1  UNL1       -0.2018
     21 C          62.1452   85.7586   10.1246 C.ar    1  UNL1        0.1671
     22 F          63.2626   84.8020    9.8314 F       1  UNL1       -0.2018
     23 C          61.3441   86.3438    8.9996 C.ar    1  UNL1        0.0299
     24 C          64.0512   91.0540   12.8013 C.ar    1  UNL1       -0.0152
     25 C          64.5292   91.6172   14.1068 C.ar    1  UNL1        0.0255
     26 C          64.1870   90.9247   15.3926 C.ar    1  UNL1        0.1398
     27 F          64.6650   91.4880   16.6981 F       1  UNL1       -0.2042
     28 C          63.3669   89.6690   15.3730 C.ar    1  UNL1        0.0297
     29 C          62.8889   89.1057   14.0675 C.ar    1  UNL1        0.0051
     30 C          63.2311   89.7982   12.7817 C.ar    1  UNL1        0.0340
     31 C          64.3934   91.7465   11.5155 C.3     1  UNL1        0.0478
     32 C          65.5744   92.6690   11.4517 C.3     1  UNL1        0.0941
     33 C          68.7191   92.4203    9.0435 C.3     1  UNL1        0.0946
     34 C          67.8747   92.3675   10.2821 C.2     1  UNL1        0.2230
     35 O          68.4862   91.9602   11.5898 O.2     1  UNL1       -0.2751
     36 N          66.4188   92.7219   10.2130 N.am    1  UNL1       -0.3040
     37 H          66.0174   92.9891    9.3547 H       1  UNL1        0.1494
@<TRIPOS>BOND
     1    33    34    1
     2    34    35    2
     3    34    36   am
     4    36    32    1
     5    32    31    1
     6    31    24    1
     7    24    25   ar
     8    25    26   ar
     9    26    27    1
    10    26    28   ar
    11    28    29   ar
    12    29    30   ar
    13    30     1    1
    14     1     2   ar
    15     2     3   ar
    16     3     4   ar
    17     7     4    1
    18     7     8    1
    19     8     9    1
    20     9    10    1
    21    10    11    1
    22    11    12    1
    23    12    13    1
    24    12    16    1
    25    16    17   ar
    26    17    18   ar
    27    18    19   ar
    28    19    20    1
    29    19    21   ar
    30    21    22    1
    31    21    23   ar
    32     4     5   ar
    33     5     6    1
    34    30    24   ar
    35     5     1   ar
    36    12     7    1
    37    23    16   ar
    38    36    37    1
    39     9    14    1
    40    13    15    1
@<TRIPOS>MOLECULE
*****
 37 40 0 0 0
SMALL
GASTEIGER

@<TRIPOS>ATOM
      1 C          62.0602   85.4994   12.1043 C.ar    1  UNL1        0.1823
      2 O          60.7879   86.1111   11.5971 O.2     1  UNL1       -0.3532
      3 N          60.9631   87.6008   11.5834 N.ar    1  UNL1       -0.0807
      4 C          62.3437   87.9098   12.0821 C.ar    1  UNL1        0.1103
      5 C          63.0216   86.6110   12.4041 C.ar    1  UNL1        0.0884
      6 BR         64.4163   86.4519   12.9329 Br      1  UNL1       -0.0444
      7 C          62.9413   89.2773   12.2325 C.3     1  UNL1        0.0883
      8 C          63.5083   89.7069   13.5531 C.3     1  UNL1        0.0773
      9 N          64.1059   91.0745   13.7035 N.3     1  UNL1       -0.2970
     10 C          64.1364   92.0124   12.5334 C.3     1  UNL1        0.0714
     11 C          63.5694   91.5829   11.2128 C.3     1  UNL1        0.0486
     12 C          62.9718   90.2153   11.0624 C.3     1  UNL1        0.1149
     13 O          62.7705   90.7418    9.6723 O.3     1  UNL1       -0.3822
     14 H          65.0728   90.9423   14.0003 H       1  UNL1        0.1233
     15 H          63.1187   91.6453    9.6152 H       1  UNL1        0.2107
     16 C          62.3043   89.0305   10.4292 C.ar    1  UNL1        0.0045
     17 C          60.8076   88.9610   10.3605 C.ar    1  UNL1        0.0004
     18 C          60.1401   87.7762    9.7273 C.ar    1  UNL1        0.0317
     19 C          60.9695   86.6609    9.1630 C.ar    1  UNL1        0.1674
     20 F          60.3020   85.4762    8.5299 F       1  UNL1       -0.2018
     21 C          62.4663   86.7306    9.2318 C.ar    1  UNL1        0.1671
     22 F          63.2957   85.6154    8.6674 F       1  UNL1       -0.2018
     23 C          63.1337   87.9153    9.8649 C.ar    1  UNL1        0.0299
     24 C          62.2986   83.4264   13.6522 C.ar    1  UNL1       -0.0152
     25 C          62.5629   81.9605   13.8286 C.ar    1  UNL1        0.0255
     26 C          62.8533   81.1016   12.6336 C.ar    1  UNL1        0.1398
     27 F          63.1176   79.6356   12.8100 F       1  UNL1       -0.2042
     28 C          62.8792   81.7086   11.2622 C.ar    1  UNL1        0.0297
     29 C          62.6149   83.1745   11.0858 C.ar    1  UNL1        0.0051
     30 C          62.3245   84.0334   12.2808 C.ar    1  UNL1        0.0340
     31 C          62.0082   84.2853   14.8472 C.3     1  UNL1        0.0478
     32 C          63.0713   84.5182   15.8794 C.3     1  UNL1        0.0941
     33 C          63.1039   88.2813   17.1396 C.3     1  UNL1        0.0946
     34 C          62.6313   86.8873   16.8511 C.2     1  UNL1        0.2230
     35 O          61.2461   86.4682   17.2455 O.2     1  UNL1       -0.2751
     36 N          63.5439   85.9123   16.1680 N.am    1  UNL1       -0.3040
     37 H          64.4530   86.1873   15.9090 H       1  UNL1        0.1494
@<TRIPOS>BOND
     1    33    34    1
     2    34    35    2
     3    34    36   am
     4    36    32    1
     5    32    31    1
     6    31    24    1
     7    24    25   ar
     8    25    26   ar
     9    26    27    1
    10    26    28   ar
    11    28    29   ar
    12    29    30   ar
    13    30     1    1
    14     1     2   ar
    15     2     3   ar
    16     3     4   ar
    17     7     4    1
    18     7     8    1
    19     8     9    1
    20     9    10    1
    21    10    11    1
    22    11    12    1
    23    12    13    1
    24    12    16    1
    25    16    17   ar
    26    17    18   ar
    27    18    19   ar
    28    19    20    1
    29    19    21   ar
    30    21    22    1
    31    21    23   ar
    32     4     5   ar
    33     5     6    1
    34    30    24   ar
    35     5     1   ar
    36    12     7    1
    37    23    16   ar
    38    36    37    1
    39     9    14    1
    40    13    15    1
@<TRIPOS>MOLECULE
*****
 37 40 0 0 0
SMALL
GASTEIGER

@<TRIPOS>ATOM
      1 C          63.4107   86.1775   12.5762 C.ar    1  UNL1        0.1823
      2 O          64.4508   85.7875   13.5842 O.2     1  UNL1       -0.3532
      3 N          64.5123   84.2895   13.6309 N.ar    1  UNL1       -0.0807
      4 C          63.5101   83.7536   12.6518 C.ar    1  UNL1        0.1103
      5 C          62.8293   84.9205   12.0000 C.ar    1  UNL1        0.0884
      6 BR         61.7556   84.8438   10.9553 Br      1  UNL1       -0.0444
      7 C          63.2368   82.3052   12.3735 C.3     1  UNL1        0.0883
      8 C          63.4087   81.7628   10.9856 C.3     1  UNL1        0.0773
      9 N          63.1354   80.3144   10.7073 N.3     1  UNL1       -0.2970
     10 C          62.6901   79.4085   11.8168 C.3     1  UNL1        0.0714
     11 C          62.5181   79.9509   13.2047 C.3     1  UNL1        0.0486
     12 C          62.7915   81.3993   13.4830 C.3     1  UNL1        0.1149
     13 O          62.3931   80.9412   14.8546 O.3     1  UNL1       -0.3822
     14 H          63.9975   79.9189   10.3322 H       1  UNL1        0.1233
     15 H          62.1808   79.9950   14.8305 H       1  UNL1        0.2107
     16 C          62.9264   82.6886   14.2377 C.ar    1  UNL1        0.0045
     17 C          64.2696   83.1246   14.7433 C.ar    1  UNL1        0.0004
     18 C          64.4045   84.4140   15.4980 C.ar    1  UNL1        0.0317
     19 C          63.1962   85.2673   15.7470 C.ar    1  UNL1        0.1674
     20 F          63.3312   86.5565   16.5016 F       1  UNL1       -0.2018
     21 C          61.8530   84.8312   15.2413 C.ar    1  UNL1        0.1671
     22 F          60.6448   85.6845   15.4903 F       1  UNL1       -0.2018
     23 C          61.7181   83.5419   14.4867 C.ar    1  UNL1        0.0299
     24 C          63.4809   88.7307   13.0516 C.ar    1  UNL1       -0.0152
     25 C          63.0906   90.1317   12.6843 C.ar    1  UNL1        0.0255
     26 C          62.2398   90.3804   11.4742 C.ar    1  UNL1        0.1398
     27 F          61.8496   91.7814   11.1069 F       1  UNL1       -0.2042
     28 C          61.7793   89.2282   10.6315 C.ar    1  UNL1        0.0297
     29 C          62.1696   87.8272   10.9988 C.ar    1  UNL1        0.0051
     30 C          63.0204   87.5785   12.2089 C.ar    1  UNL1        0.0340
     31 C          64.3317   88.4820   14.2617 C.3     1  UNL1        0.0478
     32 C          64.7391   89.6274   15.1404 C.3     1  UNL1        0.0941
     33 C          66.5464   93.1314   14.6872 C.3     1  UNL1        0.0946
     34 C          65.6368   92.0641   15.2198 C.2     1  UNL1        0.2230
     35 O          64.7155   92.3663   16.3643 O.2     1  UNL1       -0.2751
     36 N          65.6486   90.6947   14.6078 N.am    1  UNL1       -0.3040
     37 H          66.2533   90.4964   13.8566 H       1  UNL1        0.1494
@<TRIPOS>BOND
     1    33    34    1
     2    34    35    2
     3    34    36   am
     4    36    32    1
     5    32    31    1
     6    31    24    1
     7    24    25   ar
     8    25    26   ar
     9    26    27    1
    10    26    28   ar
    11    28    29   ar
    12    29    30   ar
    13    30     1    1
    14     1     2   ar
    15     2     3   ar
    16     3     4   ar
    17     7     4    1
    18     7     8    1
    19     8     9    1
    20     9    10    1
    21    10    11    1
    22    11    12    1
    23    12    13    1
    24    12    16    1
    25    16    17   ar
    26    17    18   ar
    27    18    19   ar
    28    19    20    1
    29    19    21   ar
    30    21    22    1
    31    21    23   ar
    32     4     5   ar
    33     5     6    1
    34    30    24   ar
    35     5     1   ar
    36    12     7    1
    37    23    16   ar
    38    36    37    1
    39     9    14    1
    40    13    15    1
@<TRIPOS>MOLECULE
*****
 37 40 0 0 0
SMALL
GASTEIGER

@<TRIPOS>ATOM
      1 C          64.1020   86.0903   13.4639 C.ar    1  UNL1        0.1823
      2 O          65.2539   85.4039   14.1361 O.2     1  UNL1       -0.3532
      3 N          65.1486   83.9350   13.8511 N.ar    1  UNL1       -0.0807
      4 C          63.9316   83.7135   13.0027 C.ar    1  UNL1        0.1103
      5 C          63.2847   85.0455   12.7634 C.ar    1  UNL1        0.0884
      6 BR         62.0393   85.2899   11.9639 Br      1  UNL1       -0.0444
      7 C          63.4466   82.3921   12.4845 C.3     1  UNL1        0.0883
      8 C          63.6736   82.0203   11.0492 C.3     1  UNL1        0.0773
      9 N          63.1886   80.6988   10.5310 N.3     1  UNL1       -0.2970
     10 C          62.4766   79.7491   11.4482 C.3     1  UNL1        0.0714
     11 C          62.2496   80.1209   12.8836 C.3     1  UNL1        0.0486
     12 C          62.7346   81.4424   13.4017 C.3     1  UNL1        0.1149
     13 O          62.1165   80.8844   14.6493 O.3     1  UNL1       -0.3822
     14 H          64.0060   80.2050   10.1728 H       1  UNL1        0.1233
     15 H          61.7495   80.0060   14.4634 H       1  UNL1        0.2107
     16 C          63.0050   82.5701   14.3532 C.ar    1  UNL1        0.0045
     17 C          64.3596   82.7133   14.9809 C.ar    1  UNL1        0.0004
     18 C          64.6300   83.8411   15.9324 C.ar    1  UNL1        0.0317
     19 C          63.5455   84.8256   16.2560 C.ar    1  UNL1        0.1674
     20 F          63.8159   85.9533   17.2073 F       1  UNL1       -0.2018
     21 C          62.1907   84.6824   15.6281 C.ar    1  UNL1        0.1671
     22 F          61.1064   85.6669   15.9517 F       1  UNL1       -0.2018
     23 C          61.9205   83.5547   14.6768 C.ar    1  UNL1        0.0299
     24 C          63.1413   88.2152   12.3186 C.ar    1  UNL1       -0.0152
     25 C          62.8565   89.6877   12.3427 C.ar    1  UNL1        0.0255
     26 C          63.2477   90.5078   13.5361 C.ar    1  UNL1        0.1398
     27 F          62.9630   91.9804   13.5602 F       1  UNL1       -0.2042
     28 C          63.9237   89.8555   14.7055 C.ar    1  UNL1        0.0297
     29 C          64.2084   88.3830   14.6814 C.ar    1  UNL1        0.0051
     30 C          63.8172   87.5628   13.4880 C.ar    1  UNL1        0.0340
     31 C          62.7501   87.3951   11.1251 C.3     1  UNL1        0.0478
     32 C          62.3256   88.0726    9.8560 C.3     1  UNL1        0.0941
     33 C          59.0538   86.7821    8.0175 C.3     1  UNL1        0.0946
     34 C          60.4789   86.8740    8.4764 C.2     1  UNL1        0.2230
     35 O          61.4825   85.8593    8.0147 O.2     1  UNL1       -0.2751
     36 N          60.9005   87.9807    9.3971 N.am    1  UNL1       -0.3040
     37 H          60.2418   88.6467    9.7002 H       1  UNL1        0.1494
@<TRIPOS>BOND
     1    33    34    1
     2    34    35    2
     3    34    36   am
     4    36    32    1
     5    32    31    1
     6    31    24    1
     7    24    25   ar
     8    25    26   ar
     9    26    27    1
    10    26    28   ar
    11    28    29   ar
    12    29    30   ar
    13    30     1    1
    14     1     2   ar
    15     2     3   ar
    16     3     4   ar
    17     7     4    1
    18     7     8    1
    19     8     9    1
    20     9    10    1
    21    10    11    1
    22    11    12    1
    23    12    13    1
    24    12    16    1
    25    16    17   ar
    26    17    18   ar
    27    18    19   ar
    28    19    20    1
    29    19    21   ar
    30    21    22    1
    31    21    23   ar
    32     4     5   ar
    33     5     6    1
    34    30    24   ar
    35     5     1   ar
    36    12     7    1
    37    23    16   ar
    38    36    37    1
    39     9    14    1
    40    13    15    1
@<TRIPOS>MOLECULE
*****
 37 40 0 0 0
SMALL
GASTEIGER

@<TRIPOS>ATOM
      1 C          61.9212   85.5279   11.2779 C.ar    1  UNL1        0.1823
      2 O          61.1896   86.3974   12.2570 O.2     1  UNL1       -0.3532
      3 N          60.3582   87.3737   11.4788 N.ar    1  UNL1       -0.0807
      4 C          60.5760   87.1076   10.0187 C.ar    1  UNL1        0.1103
      5 C          61.5420   85.9668    9.8946 C.ar    1  UNL1        0.0884
      6 BR         62.0411   85.3698    8.6122 Br      1  UNL1       -0.0444
      7 C          59.9395   87.8517    8.8824 C.3     1  UNL1        0.0883
      8 C          58.9148   87.1734    8.0222 C.3     1  UNL1        0.0773
      9 N          58.2784   87.9175    6.8859 N.3     1  UNL1       -0.2970
     10 C          58.6666   89.3398    6.6097 C.3     1  UNL1        0.0714
     11 C          59.6914   90.0181    7.4699 C.3     1  UNL1        0.0486
     12 C          60.3278   89.2740    8.6062 C.3     1  UNL1        0.1149
     13 O          61.0207   90.5975    8.7410 O.3     1  UNL1       -0.3822
     14 H          57.2731   87.9149    7.0586 H       1  UNL1        0.1233
     15 H          60.7015   91.2012    8.0521 H       1  UNL1        0.2107
     16 C          61.2049   88.9896    9.7894 C.ar    1  UNL1        0.0045
     17 C          62.4867   88.2320    9.6080 C.ar    1  UNL1        0.0004
     18 C          63.3638   87.9475   10.7911 C.ar    1  UNL1        0.0317
     19 C          62.9589   88.4207   12.1558 C.ar    1  UNL1        0.1674
     20 F          63.8360   88.1362   13.3389 F       1  UNL1       -0.2018
     21 C          61.6771   89.1783   12.3373 C.ar    1  UNL1        0.1671
     22 F          61.2723   89.6514   13.7019 F       1  UNL1       -0.2018
     23 C          60.8001   89.4627   11.1541 C.ar    1  UNL1        0.0299
     24 C          63.1278   84.0697   13.0578 C.ar    1  UNL1       -0.0152
     25 C          64.0728   82.9567   13.4015 C.ar    1  UNL1        0.0255
     26 C          64.7560   82.1886   12.3091 C.ar    1  UNL1        0.1398
     27 F          65.7009   81.0755   12.6529 F       1  UNL1       -0.2042
     28 C          64.4943   82.5336   10.8730 C.ar    1  UNL1        0.0297
     29 C          63.5494   83.6467   10.5293 C.ar    1  UNL1        0.0051
     30 C          62.8662   84.4148   11.6217 C.ar    1  UNL1        0.0340
     31 C          62.4446   84.8378   14.1501 C.3     1  UNL1        0.0478
     32 C          63.1123   85.0002   15.4834 C.3     1  UNL1        0.0941
     33 C          63.1050   88.5582   17.2415 C.3     1  UNL1        0.0946
     34 C          62.6568   87.2006   16.7876 C.2     1  UNL1        0.2230
     35 O          61.3048   86.6858   17.1839 O.2     1  UNL1       -0.2751
     36 N          63.5606   86.3578   15.9374 N.am    1  UNL1       -0.3040
     37 H          64.4480   86.6956   15.6773 H       1  UNL1        0.1494
@<TRIPOS>BOND
     1    33    34    1
     2    34    35    2
     3    34    36   am
     4    36    32    1
     5    32    31    1
     6    31    24    1
     7    24    25   ar
     8    25    26   ar
     9    26    27    1
    10    26    28   ar
    11    28    29   ar
    12    29    30   ar
    13    30     1    1
    14     1     2   ar
    15     2     3   ar
    16     3     4   ar
    17     7     4    1
    18     7     8    1
    19     8     9    1
    20     9    10    1
    21    10    11    1
    22    11    12    1
    23    12    13    1
    24    12    16    1
    25    16    17   ar
    26    17    18   ar
    27    18    19   ar
    28    19    20    1
    29    19    21   ar
    30    21    22    1
    31    21    23   ar
    32     4     5   ar
    33     5     6    1
    34    30    24   ar
    35     5     1   ar
    36    12     7    1
    37    23    16   ar
    38    36    37    1
    39     9    14    1
    40    13    15    1
@<TRIPOS>MOLECULE
*****
 37 40 0 0 0
SMALL
GASTEIGER

@<TRIPOS>ATOM
      1 C          62.3170   86.2486   12.6549 C.ar    1  UNL1        0.1823
      2 O          61.6334   86.1120   13.9831 O.2     1  UNL1       -0.3532
      3 N          61.6928   84.6692   14.3887 N.ar    1  UNL1       -0.0807
      4 C          62.4131   83.9140   13.3112 C.ar    1  UNL1        0.1103
      5 C          62.7988   84.8902   12.2397 C.ar    1  UNL1        0.0884
      6 BR         63.5369   84.5650   10.9750 Br      1  UNL1       -0.0444
      7 C          62.6976   82.4412   13.3062 C.3     1  UNL1        0.0883
      8 C          61.9629   81.5387   12.3598 C.3     1  UNL1        0.0773
      9 N          62.2474   80.0660   12.3547 N.3     1  UNL1       -0.2970
     10 C          63.2666   79.4957   13.2961 C.3     1  UNL1        0.0714
     11 C          64.0013   80.3983   14.2425 C.3     1  UNL1        0.0486
     12 C          63.7168   81.8710   14.2475 C.3     1  UNL1        0.1149
     13 O          64.7633   81.8042   15.3200 O.3     1  UNL1       -0.3822
     14 H          62.5527   79.8283   11.4110 H       1  UNL1        0.1233
     15 H          65.0526   80.8853   15.4327 H       1  UNL1        0.2107
     16 C          63.7957   83.3206   14.6250 C.ar    1  UNL1        0.0045
     17 C          64.7563   84.2289   13.9165 C.ar    1  UNL1        0.0004
     18 C          64.8352   85.6785   14.2940 C.ar    1  UNL1        0.0317
     19 C          63.9534   86.2198   15.3801 C.ar    1  UNL1        0.1674
     20 F          64.0324   87.6693   15.7575 F       1  UNL1       -0.2018
     21 C          62.9928   85.3114   16.0886 C.ar    1  UNL1        0.1671
     22 F          62.1110   85.8527   17.1747 F       1  UNL1       -0.2018
     23 C          62.9139   83.8619   15.7111 C.ar    1  UNL1        0.0299
     24 C          61.8165   87.6829   10.5472 C.ar    1  UNL1       -0.0152
     25 C          61.9882   88.9547    9.7707 C.ar    1  UNL1        0.0255
     26 C          62.8320   90.0640   10.3251 C.ar    1  UNL1        0.1398
     27 F          63.0037   91.3358    9.5485 F       1  UNL1       -0.2042
     28 C          63.5042   89.9015   11.6562 C.ar    1  UNL1        0.0297
     29 C          63.3325   88.6297   12.4327 C.ar    1  UNL1        0.0051
     30 C          62.4887   87.5205   11.8783 C.ar    1  UNL1        0.0340
     31 C          60.9727   86.5737    9.9927 C.3     1  UNL1        0.0478
     32 C          60.1561   86.7994    8.7549 C.3     1  UNL1        0.0941
     33 C          61.6089   84.2675    6.0662 C.3     1  UNL1        0.0946
     34 C          61.5436   85.2505    7.1974 C.2     1  UNL1        0.2230
     35 O          62.8003   85.6674    7.9023 O.2     1  UNL1       -0.2751
     36 N          60.2214   85.8165    7.6237 N.am    1  UNL1       -0.3040
     37 H          59.3966   85.5428    7.1611 H       1  UNL1        0.1494
@<TRIPOS>BOND
     1    33    34    1
     2    34    35    2
     3    34    36   am
     4    36    32    1
     5    32    31    1
     6    31    24    1
     7    24    25   ar
     8    25    26   ar
     9    26    27    1
    10    26    28   ar
    11    28    29   ar
    12    29    30   ar
    13    30     1    1
    14     1     2   ar
    15     2     3   ar
    16     3     4   ar
    17     7     4    1
    18     7     8    1
    19     8     9    1
    20     9    10    1
    21    10    11    1
    22    11    12    1
    23    12    13    1
    24    12    16    1
    25    16    17   ar
    26    17    18   ar
    27    18    19   ar
    28    19    20    1
    29    19    21   ar
    30    21    22    1
    31    21    23   ar
    32     4     5   ar
    33     5     6    1
    34    30    24   ar
    35     5     1   ar
    36    12     7    1
    37    23    16   ar
    38    36    37    1
    39     9    14    1
    40    13    15    1
