@<TRIPOS>MOLECULE
*****
 54 58 0 0 0
SMALL
GASTEIGER

@<TRIPOS>ATOM
      1 N          61.1528   90.4572   11.2150 N.am    1  UNL1       -0.2770
      2 C          61.6458   89.8804    9.9210 C.2     1  UNL1        0.2270
      3 O          62.9434   90.3528    9.3354 O.2     1  UNL1       -0.2748
      4 C          60.8411   88.8312    9.2127 C.3     1  UNL1        0.0964
      5 C          59.9807   89.2083    8.0433 C.3     1  UNL1        0.0780
      6 N          59.1760   88.1591    7.3350 N.3     1  UNL1       -0.2970
      7 C          59.2318   86.7328    7.7962 C.3     1  UNL1        0.0689
      8 C          60.0922   86.3557    8.9655 C.3     1  UNL1        0.0220
      9 C          60.8969   87.4049    9.6738 C.3     1  UNL1        0.0337
     10 H          59.4767   88.1654    6.3604 H       1  UNL1        0.1233
     11 C          61.7573   87.0279   10.8432 C.ar    1  UNL1       -0.0217
     12 C          61.6335   85.6647   11.4568 C.ar    1  UNL1       -0.0012
     13 C          62.4939   85.2876   12.6262 C.ar    1  UNL1        0.0366
     14 C          63.4782   86.2737   13.1820 C.ar    1  UNL1        0.1387
     15 C          63.6019   87.6369   12.5685 C.ar    1  UNL1        0.0366
     16 C          62.7415   88.0140   11.3990 C.ar    1  UNL1       -0.0012
     17 O          64.3386   85.8966   14.3514 O.3     1  UNL1       -0.4714
     18 C          65.3086   84.7586   14.2328 C.3     1  UNL1        0.2525
     19 C          64.8177   83.3435   14.3118 C.3     1  UNL1        0.2525
     20 O          63.4512   82.9940   13.8012 O.3     1  UNL1       -0.4697
     21 C          63.2962   81.9807   12.7061 C.ar    1  UNL1        0.1596
     22 C          62.5743   80.6932   12.9724 C.ar    1  UNL1        0.0921
     23 CL         62.0074   80.4188   14.3338 Cl      1  UNL1       -0.0791
     24 C          62.4193   79.6798   11.8773 C.ar    1  UNL1        0.0103
     25 C          62.9862   79.9542   10.5159 C.ar    1  UNL1       -0.0200
     26 C          62.8312   78.9410    9.4208 C.3     1  UNL1        0.0311
     27 C          63.7081   81.2419   10.2497 C.ar    1  UNL1        0.0103
     28 C          63.8631   82.2551   11.3448 C.ar    1  UNL1        0.0921
     29 CL         64.5850   83.5427   11.0785 Cl      1  UNL1       -0.0791
     30 C          59.8552   89.9848   11.8006 C.3     1  UNL1        0.0758
     31 C          58.3834   90.1741   12.0194 C.3     1  UNL1        0.0215
     32 C          59.0795   88.9772   12.5962 C.3     1  UNL1        0.0215
     33 C          61.9575   91.5064   11.9233 C.3     1  UNL1        0.1201
     34 C          63.5350   89.9871   15.2329 C.ar    1  UNL1       -0.0194
     35 C          62.5254   90.3876   14.1984 C.ar    1  UNL1       -0.0067
     36 C          62.9672   91.1059   12.9578 C.ar    1  UNL1        0.0004
     37 C          64.4186   91.4236   12.7518 C.ar    1  UNL1        0.0343
     38 C          65.4282   91.0231   13.7863 C.ar    1  UNL1        0.1380
     39 C          64.9864   90.3049   15.0269 C.ar    1  UNL1        0.0326
     40 O          66.8796   91.3408   13.5804 O.3     1  UNL1       -0.4754
     41 C          67.2830   92.6664   13.0059 C.3     1  UNL1        0.2082
     42 C          66.3811   93.3687   12.0346 C.3     1  UNL1        0.0799
     43 C          66.9490   93.9681   10.7824 C.3     1  UNL1        0.1280
     44 C          67.5169   94.5675    9.5302 C.3     1  UNL1        0.0355
     45 C          66.1803   95.2305   11.0381 C.2     1  UNL1        0.0748
     46 O          65.4030   95.8732    9.9278 O.co2   1  UNL1       -0.5468
     47 O          66.1890   95.8503   12.4041 O.co2   1  UNL1       -0.5468
     48 O          67.7176   92.7057   10.5267 O.3     1  UNL1       -0.3506
     49 C          68.6145   92.6033    9.3287 C.3     1  UNL1        0.1744
     50 C          63.0932   89.2689   16.4734 C.3     1  UNL1        0.0290
     51 C          63.4132   87.8144   16.6521 C.3     1  UNL1        0.0367
     52 C          62.6429   86.9932   17.6432 C.3     1  UNL1        0.1426
     53 C          62.0407   84.8626   16.2837 C.3     1  UNL1        0.1741
     54 O          61.6232   86.0025   17.1649 O.3     1  UNL1       -0.3511
@<TRIPOS>UNITY_ATOM_ATTR
46 1
charge -1
@<TRIPOS>BOND
     1    53    54    1
     2    54    52    1
     3    52    51    1
     4    51    50    1
     5    50    34    1
     6    34    35   ar
     7    35    36   ar
     8    36    33    1
     9    33     1    1
    10     1     2   am
    11     2     3    2
    12     4     2    1
    13     4     5    1
    14     5     6    1
    15     6     7    1
    16     7     8    1
    17     8     9    1
    18     9    11    1
    19    11    12   ar
    20    12    13   ar
    21    13    14   ar
    22    14    17    1
    23    17    18    1
    24    18    19    1
    25    19    20    1
    26    20    21    1
    27    21    22   ar
    28    22    23    1
    29    22    24   ar
    30    24    25   ar
    31    25    26    1
    32    25    27   ar
    33    27    28   ar
    34    28    29    1
    35    14    15   ar
    36    15    16   ar
    37     1    30    1
    38    30    31    1
    39    31    32    1
    40    36    37   ar
    41    37    38   ar
    42    38    40    1
    43    40    41    1
    44    41    42    1
    45    42    43    1
    46    43    44    1
    47    43    48    1
    48    48    49    1
    49    43    45    1
    50    45    46   ar
    51    45    47   ar
    52    38    39   ar
    53    39    34   ar
    54     9     4    1
    55    16    11   ar
    56    32    30    1
    57    28    21   ar
    58     6    10    1
@<TRIPOS>MOLECULE
*****
 54 58 0 0 0
SMALL
GASTEIGER

@<TRIPOS>ATOM
      1 N          64.2305   85.3955   14.5640 N.am    1  UNL1       -0.2770
      2 C          64.6304   84.3760   13.5388 C.2     1  UNL1        0.2270
      3 O          65.8040   84.6354   12.6413 O.2     1  UNL1       -0.2748
      4 C          63.8569   83.0973   13.4112 C.3     1  UNL1        0.0964
      5 C          64.1603   81.9432   14.3202 C.3     1  UNL1        0.0780
      6 N          63.3867   80.6645   14.1926 N.3     1  UNL1       -0.2970
      7 C          62.3097   80.5397   13.1560 C.3     1  UNL1        0.0689
      8 C          62.0062   81.6937   12.2471 C.3     1  UNL1        0.0220
      9 C          62.7798   82.9725   12.3747 C.3     1  UNL1        0.0337
     10 H          62.9461   80.4954   15.0969 H       1  UNL1        0.1233
     11 C          62.4764   84.1265   11.4658 C.ar    1  UNL1       -0.0217
     12 C          63.0627   84.1685   10.0857 C.ar    1  UNL1       -0.0012
     13 C          62.7593   85.3225    9.1767 C.ar    1  UNL1        0.0366
     14 C          61.8696   86.4345    9.6478 C.ar    1  UNL1        0.1387
     15 C          61.2834   86.3925   11.0278 C.ar    1  UNL1        0.0366
     16 C          61.5868   85.2385   11.9369 C.ar    1  UNL1       -0.0012
     17 O          61.5662   87.5885    8.7388 O.3     1  UNL1       -0.4714
     18 C          60.1531   87.8568    8.3133 C.3     1  UNL1        0.2525
     19 C          59.7695   89.2121    7.7977 C.3     1  UNL1        0.2525
     20 O          58.8514   89.3334    6.6177 O.3     1  UNL1       -0.4697
     21 C          59.0697   90.4191    5.6060 C.ar    1  UNL1        0.1596
     22 C          60.4639   90.8093    5.2136 C.ar    1  UNL1        0.0921
     23 CL         61.6397   90.1137    5.8329 Cl      1  UNL1       -0.0791
     24 C          60.6822   91.8951    4.2019 C.ar    1  UNL1        0.0103
     25 C          59.5064   92.5906    3.5827 C.ar    1  UNL1       -0.0200
     26 C          59.7247   93.6764    2.5710 C.3     1  UNL1        0.0311
     27 C          58.1121   92.2004    3.9751 C.ar    1  UNL1        0.0103
     28 C          57.8938   91.1147    4.9867 C.ar    1  UNL1        0.0921
     29 CL         56.4996   90.7245    5.3791 Cl      1  UNL1       -0.0791
     30 C          63.0569   85.1361   15.4614 C.3     1  UNL1        0.0758
     31 C          62.3538   85.3369   16.7711 C.3     1  UNL1        0.0215
     32 C          61.7275   84.4861   15.7063 C.3     1  UNL1        0.0215
     33 C          65.0040   86.6743   14.6916 C.3     1  UNL1        0.1201
     34 C          63.0762   89.4010   12.5471 C.ar    1  UNL1       -0.0194
     35 C          63.7051   88.1005   12.9513 C.ar    1  UNL1       -0.0067
     36 C          64.3752   87.9748   14.2874 C.ar    1  UNL1        0.0004
     37 C          64.4164   89.1494   15.2193 C.ar    1  UNL1        0.0343
     38 C          63.7876   90.4498   14.8151 C.ar    1  UNL1        0.1380
     39 C          63.1175   90.5756   13.4790 C.ar    1  UNL1        0.0326
     40 O          63.8288   91.6245   15.7470 O.3     1  UNL1       -0.4754
     41 C          65.1414   92.2652   16.0886 C.3     1  UNL1        0.2082
     42 C          65.8836   93.0539   15.0508 C.3     1  UNL1        0.0799
     43 C          66.9280   92.3862   14.2062 C.3     1  UNL1        0.1280
     44 C          67.9723   91.7184   13.3615 C.3     1  UNL1        0.0355
     45 C          66.3328   93.0087   12.9781 C.2     1  UNL1        0.0748
     46 O          65.5054   92.1784   12.0421 O.co2   1  UNL1       -0.5468
     47 O          66.5650   94.4616   12.6860 O.co2   1  UNL1       -0.5468
     48 O          67.5231   91.7637   15.4342 O.3     1  UNL1       -0.3506
     49 C          68.7193   92.3897   16.0879 C.3     1  UNL1        0.1744
     50 C          62.4062   89.5267   11.2110 C.3     1  UNL1        0.0290
     51 C          61.2636   90.4820   11.0319 C.3     1  UNL1        0.0367
     52 C          59.8686   90.0570   11.3833 C.3     1  UNL1        0.1426
     53 C          58.2666   88.8333   13.0222 C.3     1  UNL1        0.1741
     54 O          59.5687   89.5283   12.7547 O.3     1  UNL1       -0.3511
@<TRIPOS>UNITY_ATOM_ATTR
46 1
charge -1
@<TRIPOS>BOND
     1    53    54    1
     2    54    52    1
     3    52    51    1
     4    51    50    1
     5    50    34    1
     6    34    35   ar
     7    35    36   ar
     8    36    33    1
     9    33     1    1
    10     1     2   am
    11     2     3    2
    12     4     2    1
    13     4     5    1
    14     5     6    1
    15     6     7    1
    16     7     8    1
    17     8     9    1
    18     9    11    1
    19    11    12   ar
    20    12    13   ar
    21    13    14   ar
    22    14    17    1
    23    17    18    1
    24    18    19    1
    25    19    20    1
    26    20    21    1
    27    21    22   ar
    28    22    23    1
    29    22    24   ar
    30    24    25   ar
    31    25    26    1
    32    25    27   ar
    33    27    28   ar
    34    28    29    1
    35    14    15   ar
    36    15    16   ar
    37     1    30    1
    38    30    31    1
    39    31    32    1
    40    36    37   ar
    41    37    38   ar
    42    38    40    1
    43    40    41    1
    44    41    42    1
    45    42    43    1
    46    43    44    1
    47    43    48    1
    48    48    49    1
    49    43    45    1
    50    45    46   ar
    51    45    47   ar
    52    38    39   ar
    53    39    34   ar
    54     9     4    1
    55    16    11   ar
    56    32    30    1
    57    28    21   ar
    58     6    10    1
@<TRIPOS>MOLECULE
*****
 54 58 0 0 0
SMALL
GASTEIGER

@<TRIPOS>ATOM
      1 N          60.8028   90.3894   11.0415 N.am    1  UNL1       -0.2770
      2 C          61.2874   89.9226    9.7008 C.2     1  UNL1        0.2270
      3 O          62.5268   90.5186    9.1021 O.2     1  UNL1       -0.2748
      4 C          60.5324   88.8597    8.9589 C.3     1  UNL1        0.0964
      5 C          59.6503   89.2335    7.8047 C.3     1  UNL1        0.0780
      6 N          58.8954   88.1707    7.0628 N.3     1  UNL1       -0.2970
      7 C          59.0225   86.7341    7.4751 C.3     1  UNL1        0.0689
      8 C          59.9046   86.3603    8.6293 C.3     1  UNL1        0.0220
      9 C          60.6596   87.4231    9.3712 C.3     1  UNL1        0.0337
     10 H          59.1919   88.2247    6.0883 H       1  UNL1        0.1233
     11 C          61.5416   87.0494   10.5254 C.ar    1  UNL1       -0.0217
     12 C          61.3664   85.7235   11.2047 C.ar    1  UNL1       -0.0012
     13 C          62.2485   85.3497   12.3589 C.ar    1  UNL1        0.0366
     14 C          63.3058   86.3018   12.8339 C.ar    1  UNL1        0.1387
     15 C          63.4810   87.6277   12.1547 C.ar    1  UNL1        0.0366
     16 C          62.5989   88.0015   11.0004 C.ar    1  UNL1       -0.0012
     17 O          64.1879   85.9280   13.9882 O.3     1  UNL1       -0.4714
     18 C          63.6724   85.0156   15.0613 C.3     1  UNL1        0.2525
     19 C          63.5095   83.5502   14.7853 C.3     1  UNL1        0.2525
     20 O          64.4727   82.8467   13.8757 O.3     1  UNL1       -0.4697
     21 C          63.9585   81.9866   12.7596 C.ar    1  UNL1        0.1596
     22 C          64.1800   82.3965   11.3338 C.ar    1  UNL1        0.0921
     23 CL         64.9158   83.6664   11.0241 Cl      1  UNL1       -0.0791
     24 C          63.6658   81.5364   10.2175 C.ar    1  UNL1        0.0103
     25 C          62.9300   80.2664   10.5272 C.ar    1  UNL1       -0.0200
     26 C          62.4158   79.4064    9.4111 C.3     1  UNL1        0.0311
     27 C          62.7085   79.8566   11.9531 C.ar    1  UNL1        0.0103
     28 C          63.2227   80.7167   13.0692 C.ar    1  UNL1        0.0921
     29 CL         63.0011   80.3068   14.4950 Cl      1  UNL1       -0.0791
     30 C          59.5634   89.7933   11.6403 C.3     1  UNL1        0.0758
     31 C          58.1043   89.8932   11.9736 C.3     1  UNL1        0.0215
     32 C          58.8757   88.6612   12.3439 C.3     1  UNL1        0.0215
     33 C          61.5578   91.4522   11.7835 C.3     1  UNL1        0.1201
     34 C          64.0804   89.6953   14.2935 C.ar    1  UNL1       -0.0194
     35 C          62.8143   90.0427   13.5680 C.ar    1  UNL1       -0.0067
     36 C          62.8240   91.1049   12.5089 C.ar    1  UNL1        0.0004
     37 C          64.0997   91.8197   12.1753 C.ar    1  UNL1        0.0343
     38 C          65.3658   91.4724   12.9008 C.ar    1  UNL1        0.1380
     39 C          65.3561   90.4102   13.9599 C.ar    1  UNL1        0.0326
     40 O          66.6417   92.1872   12.5672 O.3     1  UNL1       -0.4754
     41 C          66.6110   93.6373   12.1846 C.3     1  UNL1        0.2082
     42 C          66.3688   94.0315   10.7577 C.3     1  UNL1        0.0799
     43 C          66.9461   95.3091   10.2243 C.3     1  UNL1        0.1280
     44 C          67.5233   96.5867    9.6909 C.3     1  UNL1        0.0355
     45 C          67.7695   94.5277    9.2439 C.2     1  UNL1        0.0748
     46 O          68.9183   93.6928    9.7268 O.co2   1  UNL1       -0.5468
     47 O          67.4442   94.5811    7.7805 O.co2   1  UNL1       -0.5468
     48 O          66.1226   96.0905   11.2047 O.3     1  UNL1       -0.3506
     49 C          64.9202   96.8537   10.7339 C.3     1  UNL1        0.1744
     50 C          64.0707   88.6332   15.3526 C.3     1  UNL1        0.0290
     51 C          63.2419   88.8149   16.5895 C.3     1  UNL1        0.0367
     52 C          63.4091   90.0460   17.4301 C.3     1  UNL1        0.1426
     53 C          64.4537   92.3128   16.7086 C.3     1  UNL1        0.1741
     54 O          63.2648   91.4037   16.8088 O.3     1  UNL1       -0.3511
@<TRIPOS>UNITY_ATOM_ATTR
46 1
charge -1
@<TRIPOS>BOND
     1    53    54    1
     2    54    52    1
     3    52    51    1
     4    51    50    1
     5    50    34    1
     6    34    35   ar
     7    35    36   ar
     8    36    33    1
     9    33     1    1
    10     1     2   am
    11     2     3    2
    12     4     2    1
    13     4     5    1
    14     5     6    1
    15     6     7    1
    16     7     8    1
    17     8     9    1
    18     9    11    1
    19    11    12   ar
    20    12    13   ar
    21    13    14   ar
    22    14    17    1
    23    17    18    1
    24    18    19    1
    25    19    20    1
    26    20    21    1
    27    21    22   ar
    28    22    23    1
    29    22    24   ar
    30    24    25   ar
    31    25    26    1
    32    25    27   ar
    33    27    28   ar
    34    28    29    1
    35    14    15   ar
    36    15    16   ar
    37     1    30    1
    38    30    31    1
    39    31    32    1
    40    36    37   ar
    41    37    38   ar
    42    38    40    1
    43    40    41    1
    44    41    42    1
    45    42    43    1
    46    43    44    1
    47    43    48    1
    48    48    49    1
    49    43    45    1
    50    45    46   ar
    51    45    47   ar
    52    38    39   ar
    53    39    34   ar
    54     9     4    1
    55    16    11   ar
    56    32    30    1
    57    28    21   ar
    58     6    10    1
@<TRIPOS>MOLECULE
*****
 54 58 0 0 0
SMALL
GASTEIGER

@<TRIPOS>ATOM
      1 N          64.2551   85.3134   14.4918 N.am    1  UNL1       -0.2770
      2 C          64.6578   84.2889   13.4728 C.2     1  UNL1        0.2270
      3 O          65.8332   84.5441   12.5766 O.2     1  UNL1       -0.2748
      4 C          63.8851   83.0091   13.3502 C.3     1  UNL1        0.0964
      5 C          64.2020   81.8523   14.2511 C.3     1  UNL1        0.0780
      6 N          63.4292   80.5726   14.1285 N.3     1  UNL1       -0.2970
      7 C          62.3396   80.4495   13.1049 C.3     1  UNL1        0.0689
      8 C          62.0228   81.6062   12.2040 C.3     1  UNL1        0.0220
      9 C          62.7955   82.8860   12.3266 C.3     1  UNL1        0.0337
     10 H          63.0002   80.3994   15.0375 H       1  UNL1        0.1233
     11 C          62.4787   84.0427   11.4258 C.ar    1  UNL1       -0.0217
     12 C          63.0554   84.0956   10.0420 C.ar    1  UNL1       -0.0012
     13 C          62.7386   85.2523    9.1411 C.ar    1  UNL1        0.0366
     14 C          61.8451   86.3561    9.6239 C.ar    1  UNL1        0.1387
     15 C          61.2684   86.3033   11.0076 C.ar    1  UNL1        0.0366
     16 C          61.5852   85.1466   11.9085 C.ar    1  UNL1       -0.0012
     17 O          61.5283   87.5129    8.7230 O.3     1  UNL1       -0.4714
     18 C          60.1198   88.0179    8.6179 C.3     1  UNL1        0.2525
     19 C          59.5207   88.2943    7.2709 C.3     1  UNL1        0.2525
     20 O          58.6373   89.4906    7.0741 O.3     1  UNL1       -0.4697
     21 C          58.8834   90.4238    5.9258 C.ar    1  UNL1        0.1596
     22 C          60.2863   90.8058    5.5572 C.ar    1  UNL1        0.0921
     23 CL         61.4431   90.2546    6.3369 Cl      1  UNL1       -0.0791
     24 C          60.5324   91.7391    4.4089 C.ar    1  UNL1        0.0103
     25 C          59.3755   92.2903    3.6293 C.ar    1  UNL1       -0.0200
     26 C          59.6216   93.2235    2.4810 C.3     1  UNL1        0.0311
     27 C          57.9726   91.9083    3.9979 C.ar    1  UNL1        0.0103
     28 C          57.7265   90.9751    5.1462 C.ar    1  UNL1        0.0921
     29 CL         56.3236   90.5931    5.5148 Cl      1  UNL1       -0.0791
     30 C          63.0797   85.0582   15.3880 C.3     1  UNL1        0.0758
     31 C          61.8347   84.2858   15.7093 C.3     1  UNL1        0.0215
     32 C          62.2889   85.3885   16.6190 C.3     1  UNL1        0.0215
     33 C          65.0279   86.5932   14.6144 C.3     1  UNL1        0.1201
     34 C          62.9428   89.3786   12.7056 C.ar    1  UNL1       -0.0194
     35 C          63.6049   88.0698   13.0191 C.ar    1  UNL1       -0.0067
     36 C          64.3657   87.9022   14.3009 C.ar    1  UNL1        0.0004
     37 C          64.4642   89.0434   15.2693 C.ar    1  UNL1        0.0343
     38 C          63.8020   90.3523   14.9558 C.ar    1  UNL1        0.1380
     39 C          63.0413   90.5199   13.6739 C.ar    1  UNL1        0.0326
     40 O          63.9005   91.4936   15.9242 O.3     1  UNL1       -0.4754
     41 C          65.1933   92.2390   16.0760 C.3     1  UNL1        0.2082
     42 C          65.8745   92.8127   14.8689 C.3     1  UNL1        0.0799
     43 C          67.3448   92.5977   14.6644 C.3     1  UNL1        0.1280
     44 C          68.8151   92.3827   14.4598 C.3     1  UNL1        0.0355
     45 C          67.2140   93.0563   13.2422 C.2     1  UNL1        0.0748
     46 O          66.5501   94.3657   12.9345 O.co2   1  UNL1       -0.5468
     47 O          67.7472   92.2056   12.1278 O.co2   1  UNL1       -0.5468
     48 O          67.4755   92.1390   16.0865 O.3     1  UNL1       -0.3506
     49 C          68.8162   92.1540   16.7591 C.3     1  UNL1        0.1744
     50 C          62.1820   89.5463   11.4237 C.3     1  UNL1        0.0290
     51 C          62.8762   90.0736   10.2031 C.3     1  UNL1        0.0367
     52 C          63.2403   91.5262   10.1161 C.3     1  UNL1        0.1426
     53 C          65.3043   93.0971   10.2647 C.3     1  UNL1        0.1741
     54 O          64.4220   92.0501   10.8772 O.3     1  UNL1       -0.3511
@<TRIPOS>UNITY_ATOM_ATTR
46 1
charge -1
@<TRIPOS>BOND
     1    53    54    1
     2    54    52    1
     3    52    51    1
     4    51    50    1
     5    50    34    1
     6    34    35   ar
     7    35    36   ar
     8    36    33    1
     9    33     1    1
    10     1     2   am
    11     2     3    2
    12     4     2    1
    13     4     5    1
    14     5     6    1
    15     6     7    1
    16     7     8    1
    17     8     9    1
    18     9    11    1
    19    11    12   ar
    20    12    13   ar
    21    13    14   ar
    22    14    17    1
    23    17    18    1
    24    18    19    1
    25    19    20    1
    26    20    21    1
    27    21    22   ar
    28    22    23    1
    29    22    24   ar
    30    24    25   ar
    31    25    26    1
    32    25    27   ar
    33    27    28   ar
    34    28    29    1
    35    14    15   ar
    36    15    16   ar
    37     1    30    1
    38    30    31    1
    39    31    32    1
    40    36    37   ar
    41    37    38   ar
    42    38    40    1
    43    40    41    1
    44    41    42    1
    45    42    43    1
    46    43    44    1
    47    43    48    1
    48    48    49    1
    49    43    45    1
    50    45    46   ar
    51    45    47   ar
    52    38    39   ar
    53    39    34   ar
    54     9     4    1
    55    16    11   ar
    56    32    30    1
    57    28    21   ar
    58     6    10    1
@<TRIPOS>MOLECULE
*****
 54 58 0 0 0
SMALL
GASTEIGER

@<TRIPOS>ATOM
      1 N          64.2463   84.9379   14.4211 N.am    1  UNL1       -0.2770
      2 C          64.7213   86.1783   15.1182 C.2     1  UNL1        0.2270
      3 O          65.9901   86.8466   14.6784 O.2     1  UNL1       -0.2748
      4 C          63.9275   86.7504   16.2551 C.3     1  UNL1        0.0964
      5 C          63.5693   85.8875   17.4287 C.3     1  UNL1        0.0780
      6 N          62.7754   86.4596   18.5656 N.3     1  UNL1       -0.2970
      7 C          62.3398   87.8945   18.5290 C.3     1  UNL1        0.0689
      8 C          62.6980   88.7573   17.3554 C.3     1  UNL1        0.0220
      9 C          63.4918   88.1852   16.2185 C.3     1  UNL1        0.0337
     10 H          63.3410   86.3450   19.4067 H       1  UNL1        0.1233
     11 C          63.8500   89.0480   15.0449 C.ar    1  UNL1       -0.0217
     12 C          64.6916   90.2736   15.2442 C.ar    1  UNL1       -0.0012
     13 C          65.0498   91.1364   14.0707 C.ar    1  UNL1        0.0366
     14 C          64.5664   90.7736   12.6978 C.ar    1  UNL1        0.1387
     15 C          63.7249   89.5481   12.4985 C.ar    1  UNL1        0.0366
     16 C          63.3666   88.6852   13.6721 C.ar    1  UNL1       -0.0012
     17 O          64.9247   91.6365   11.5242 O.3     1  UNL1       -0.4714
     18 C          65.0606   93.1202   11.6979 C.3     1  UNL1        0.2525
     19 C          66.3171   93.6949   12.2817 C.3     1  UNL1        0.2525
     20 O          67.2985   94.4052   11.3971 O.3     1  UNL1       -0.4697
     21 C          66.8393   95.0166   10.1067 C.ar    1  UNL1        0.1596
     22 C          67.2592   94.4129    8.7994 C.ar    1  UNL1        0.0921
     23 CL         68.1384   93.1977    8.7825 Cl      1  UNL1       -0.0791
     24 C          66.7999   95.0243    7.5089 C.ar    1  UNL1        0.0103
     25 C          65.9207   96.2396    7.5259 C.ar    1  UNL1       -0.0200
     26 C          65.4615   96.8510    6.2355 C.3     1  UNL1        0.0311
     27 C          65.5008   96.8433    8.8333 C.ar    1  UNL1        0.0103
     28 C          65.9601   96.2319   10.1236 C.ar    1  UNL1        0.0921
     29 CL         65.5401   96.8356   11.4309 Cl      1  UNL1       -0.0791
     30 C          62.9774   84.2697   14.8610 C.3     1  UNL1        0.0758
     31 C          61.5352   83.9344   14.6211 C.3     1  UNL1        0.0215
     32 C          62.2220   83.4475   15.8625 C.3     1  UNL1        0.0215
     33 C          65.0401   84.3659   13.2842 C.3     1  UNL1        0.1201
     34 C          63.2300   81.3176   11.5005 C.ar    1  UNL1       -0.0194
     35 C          63.9121   82.1433   12.5507 C.ar    1  UNL1       -0.0067
     36 C          64.3580   83.5401   12.2340 C.ar    1  UNL1        0.0004
     37 C          64.1220   84.1110   10.8671 C.ar    1  UNL1        0.0343
     38 C          63.4400   83.2852    9.8170 C.ar    1  UNL1        0.1380
     39 C          62.9940   81.8885   10.1337 C.ar    1  UNL1        0.0326
     40 O          63.2039   83.8561    8.4501 O.3     1  UNL1       -0.4754
     41 C          62.8575   85.3070    8.2928 C.3     1  UNL1        0.2082
     42 C          62.3547   86.0899    9.4695 C.3     1  UNL1        0.0799
     43 C          60.9903   86.7117    9.4290 C.3     1  UNL1        0.1280
     44 C          59.6259   87.3335    9.3884 C.3     1  UNL1        0.0355
     45 C          61.1348   87.1223   10.8644 C.2     1  UNL1        0.0748
     46 O          62.1091   86.4088   11.7541 O.co2   1  UNL1       -0.5468
     47 O          60.3049   88.2463   11.4102 O.co2   1  UNL1       -0.5468
     48 O          60.8459   86.3011    7.9935 O.3     1  UNL1       -0.3506
     49 C          59.5468   86.5229    7.2771 C.3     1  UNL1        0.1744
     50 C          62.7841   79.9208   11.8172 C.3     1  UNL1        0.0290
     51 C          62.1034   79.6284   13.1215 C.3     1  UNL1        0.0367
     52 C          61.4918   80.7447   13.9151 C.3     1  UNL1        0.1426
     53 C          59.2849   79.4747   14.4319 C.3     1  UNL1        0.1741
     54 O          60.0141   80.7597   14.1727 O.3     1  UNL1       -0.3511
@<TRIPOS>UNITY_ATOM_ATTR
46 1
charge -1
@<TRIPOS>BOND
     1    53    54    1
     2    54    52    1
     3    52    51    1
     4    51    50    1
     5    50    34    1
     6    34    35   ar
     7    35    36   ar
     8    36    33    1
     9    33     1    1
    10     1     2   am
    11     2     3    2
    12     4     2    1
    13     4     5    1
    14     5     6    1
    15     6     7    1
    16     7     8    1
    17     8     9    1
    18     9    11    1
    19    11    12   ar
    20    12    13   ar
    21    13    14   ar
    22    14    17    1
    23    17    18    1
    24    18    19    1
    25    19    20    1
    26    20    21    1
    27    21    22   ar
    28    22    23    1
    29    22    24   ar
    30    24    25   ar
    31    25    26    1
    32    25    27   ar
    33    27    28   ar
    34    28    29    1
    35    14    15   ar
    36    15    16   ar
    37     1    30    1
    38    30    31    1
    39    31    32    1
    40    36    37   ar
    41    37    38   ar
    42    38    40    1
    43    40    41    1
    44    41    42    1
    45    42    43    1
    46    43    44    1
    47    43    48    1
    48    48    49    1
    49    43    45    1
    50    45    46   ar
    51    45    47   ar
    52    38    39   ar
    53    39    34   ar
    54     9     4    1
    55    16    11   ar
    56    32    30    1
    57    28    21   ar
    58     6    10    1
@<TRIPOS>MOLECULE
*****
 54 58 0 0 0
SMALL
GASTEIGER

@<TRIPOS>ATOM
      1 N          64.1370   86.0287   14.8211 N.am    1  UNL1       -0.2770
      2 C          64.4275   84.9535   13.8163 C.2     1  UNL1        0.2270
      3 O          65.4829   85.1681   12.7722 O.2     1  UNL1       -0.2748
      4 C          63.6626   83.6638   13.8555 C.3     1  UNL1        0.0964
      5 C          63.9154   82.6750   14.9549 C.3     1  UNL1        0.0780
      6 N          63.1506   81.3853   14.9942 N.3     1  UNL1       -0.2970
      7 C          62.1329   81.0843   13.9340 C.3     1  UNL1        0.0689
      8 C          61.8801   82.0730   12.8347 C.3     1  UNL1        0.0220
      9 C          62.6450   83.3627   12.7955 C.3     1  UNL1        0.0337
     10 H          62.6604   81.3608   15.8883 H       1  UNL1        0.1233
     11 C          62.3923   84.3514   11.6961 C.ar    1  UNL1       -0.0217
     12 C          63.1143   84.2193   10.3879 C.ar    1  UNL1       -0.0012
     13 C          62.8616   85.2080    9.2886 C.ar    1  UNL1        0.0366
     14 C          61.8868   86.3288    9.4974 C.ar    1  UNL1        0.1387
     15 C          61.1648   86.4609   10.8055 C.ar    1  UNL1        0.0366
     16 C          61.4175   85.4722   11.9049 C.ar    1  UNL1       -0.0012
     17 O          61.6341   87.3175    8.3980 O.3     1  UNL1       -0.4714
     18 C          60.2427   87.5178    7.8746 C.3     1  UNL1        0.2525
     19 C          59.6119   88.8778    7.9225 C.3     1  UNL1        0.2525
     20 O          58.5521   89.2485    6.9277 O.3     1  UNL1       -0.4697
     21 C          58.8393   90.2768    5.8741 C.ar    1  UNL1        0.1596
     22 C          57.7092   90.9227    5.1288 C.ar    1  UNL1        0.0921
     23 CL         56.2919   90.5404    5.4371 Cl      1  UNL1       -0.0791
     24 C          57.9963   91.9510    4.0751 C.ar    1  UNL1        0.0103
     25 C          59.4136   92.3333    3.7667 C.ar    1  UNL1       -0.0200
     26 C          59.7008   93.3615    2.7131 C.3     1  UNL1        0.0311
     27 C          60.5438   91.6873    4.5121 C.ar    1  UNL1        0.0103
     28 C          60.2566   90.6591    5.5658 C.ar    1  UNL1        0.0921
     29 CL         61.3868   90.0132    6.3111 Cl      1  UNL1       -0.0791
     30 C          63.0816   85.8140   15.8652 C.3     1  UNL1        0.0758
     31 C          62.5369   86.0843   17.2364 C.3     1  UNL1        0.0215
     32 C          61.7984   85.1721   16.3024 C.3     1  UNL1        0.0215
     33 C          64.9018   87.3184   14.7819 C.3     1  UNL1        0.1201
     34 C          62.7659   89.4201   12.1798 C.ar    1  UNL1       -0.0194
     35 C          63.2889   88.2620   12.9768 C.ar    1  UNL1       -0.0067
     36 C          64.3788   88.4766   13.9848 C.ar    1  UNL1        0.0004
     37 C          64.9457   89.8492   14.1958 C.ar    1  UNL1        0.0343
     38 C          64.4227   91.0072   13.3988 C.ar    1  UNL1        0.1380
     39 C          63.3328   90.7927   12.3908 C.ar    1  UNL1        0.0326
     40 O          64.9896   92.3799   13.6097 O.3     1  UNL1       -0.4754
     41 C          66.0768   92.8887   12.7102 C.3     1  UNL1        0.2082
     42 C          65.7323   93.7435   11.5267 C.3     1  UNL1        0.0799
     43 C          66.7287   93.9305   10.4212 C.3     1  UNL1        0.1280
     44 C          67.7251   94.1175    9.3156 C.3     1  UNL1        0.0355
     45 C          66.4149   95.3968   10.3863 C.2     1  UNL1        0.0748
     46 O          65.0489   95.8809   10.7734 O.co2   1  UNL1       -0.5468
     47 O          67.4670   96.3792    9.9644 O.co2   1  UNL1       -0.5468
     48 O          67.0425   92.4641   10.4560 O.3     1  UNL1       -0.3506
     49 C          68.3427   91.9620    9.9016 C.3     1  UNL1        0.1744
     50 C          61.6760   89.2056   11.1718 C.3     1  UNL1        0.0290
     51 C          60.6724   90.2892   10.9103 C.3     1  UNL1        0.0367
     52 C          59.3911   90.3286   11.6892 C.3     1  UNL1        0.1426
     53 C          58.1752   88.7861   13.3899 C.3     1  UNL1        0.1741
     54 O          58.6606   89.0549   11.9963 O.3     1  UNL1       -0.3511
@<TRIPOS>UNITY_ATOM_ATTR
46 1
charge -1
@<TRIPOS>BOND
     1    53    54    1
     2    54    52    1
     3    52    51    1
     4    51    50    1
     5    50    34    1
     6    34    35   ar
     7    35    36   ar
     8    36    33    1
     9    33     1    1
    10     1     2   am
    11     2     3    2
    12     4     2    1
    13     4     5    1
    14     5     6    1
    15     6     7    1
    16     7     8    1
    17     8     9    1
    18     9    11    1
    19    11    12   ar
    20    12    13   ar
    21    13    14   ar
    22    14    17    1
    23    17    18    1
    24    18    19    1
    25    19    20    1
    26    20    21    1
    27    21    22   ar
    28    22    23    1
    29    22    24   ar
    30    24    25   ar
    31    25    26    1
    32    25    27   ar
    33    27    28   ar
    34    28    29    1
    35    14    15   ar
    36    15    16   ar
    37     1    30    1
    38    30    31    1
    39    31    32    1
    40    36    37   ar
    41    37    38   ar
    42    38    40    1
    43    40    41    1
    44    41    42    1
    45    42    43    1
    46    43    44    1
    47    43    48    1
    48    48    49    1
    49    43    45    1
    50    45    46   ar
    51    45    47   ar
    52    38    39   ar
    53    39    34   ar
    54     9     4    1
    55    16    11   ar
    56    32    30    1
    57    28    21   ar
    58     6    10    1
@<TRIPOS>MOLECULE
*****
 54 58 0 0 0
SMALL
GASTEIGER

@<TRIPOS>ATOM
      1 N          61.2388   89.9669   11.3321 N.am    1  UNL1       -0.2770
      2 C          60.1866   88.8992   11.2761 C.2     1  UNL1        0.2270
      3 O          59.2397   88.7183   12.4253 O.2     1  UNL1       -0.2748
      4 C          60.0813   88.0125   10.0708 C.3     1  UNL1        0.0964
      5 C          59.1655   88.3858    8.9428 C.3     1  UNL1        0.0780
      6 N          59.0603   87.4991    7.7376 N.3     1  UNL1       -0.2970
      7 C          59.8707   86.2392    7.6602 C.3     1  UNL1        0.0689
      8 C          60.7864   85.8660    8.7881 C.3     1  UNL1        0.0220
      9 C          60.8917   86.7527    9.9934 C.3     1  UNL1        0.0337
     10 H          59.3205   88.0665    6.9309 H       1  UNL1        0.1233
     11 C          61.8074   86.3796   11.1213 C.ar    1  UNL1       -0.0217
     12 C          61.8436   84.9659   11.6217 C.ar    1  UNL1       -0.0012
     13 C          62.7593   84.5927   12.7496 C.ar    1  UNL1        0.0366
     14 C          63.6387   85.6332   13.3772 C.ar    1  UNL1        0.1387
     15 C          63.6026   87.0468   12.8770 C.ar    1  UNL1        0.0366
     16 C          62.6869   87.4200   11.7490 C.ar    1  UNL1       -0.0012
     17 O          64.5545   85.2600   14.5052 O.3     1  UNL1       -0.4714
     18 C          64.1652   84.1683   15.4574 C.3     1  UNL1        0.2525
     19 C          63.3720   82.9933   14.9674 C.3     1  UNL1        0.2525
     20 O          64.0778   81.7805   14.4371 O.3     1  UNL1       -0.4697
     21 C          63.6726   81.1942   13.1173 C.ar    1  UNL1        0.1596
     22 C          62.7360   80.0234   13.0726 C.ar    1  UNL1        0.0921
     23 CL         62.2046   79.4390   14.3478 Cl      1  UNL1       -0.0791
     24 C          62.3308   79.4370   11.7527 C.ar    1  UNL1        0.0103
     25 C          62.8622   80.0215   10.4776 C.ar    1  UNL1       -0.0200
     26 C          62.4571   79.4351    9.1577 C.3     1  UNL1        0.0311
     27 C          63.7988   81.1923   10.5223 C.ar    1  UNL1        0.0103
     28 C          64.2040   81.7787   11.8421 C.ar    1  UNL1        0.0921
     29 CL         65.1406   82.9494   11.8868 Cl      1  UNL1       -0.0791
     30 C          62.1856   90.1478   10.1829 C.3     1  UNL1        0.0758
     31 C          62.8761   89.5986    8.9699 C.3     1  UNL1        0.0215
     32 C          63.1350   91.0104    9.4054 C.3     1  UNL1        0.0215
     33 C          61.3440   90.8536   12.5374 C.3     1  UNL1        0.1201
     34 C          63.7279   89.9881   15.5900 C.ar    1  UNL1       -0.0194
     35 C          62.5104   90.0518   14.7161 C.ar    1  UNL1       -0.0067
     36 C          62.5616   90.7899   13.4113 C.ar    1  UNL1        0.0004
     37 C          63.8302   91.4643   12.9803 C.ar    1  UNL1        0.0343
     38 C          65.0476   91.4006   13.8542 C.ar    1  UNL1        0.1380
     39 C          64.9965   90.6625   15.1590 C.ar    1  UNL1        0.0326
     40 O          66.3163   92.0750   13.4233 O.3     1  UNL1       -0.4754
     41 C          66.2753   93.1572   12.3854 C.3     1  UNL1        0.2082
     42 C          66.3838   92.8062   10.9311 C.3     1  UNL1        0.0799
     43 C          67.0457   93.7562    9.9776 C.3     1  UNL1        0.1280
     44 C          67.7077   94.7063    9.0241 C.3     1  UNL1        0.0355
     45 C          68.0934   92.7254    9.6778 C.2     1  UNL1        0.0748
     46 O          68.5650   92.5234    8.2683 O.co2   1  UNL1       -0.5468
     47 O          68.6694   91.8967   10.7875 O.co2   1  UNL1       -0.5468
     48 O          65.9981   94.7870   10.2774 O.3     1  UNL1       -0.3506
     49 C          66.3213   96.2457   10.1439 C.3     1  UNL1        0.1744
     50 C          63.6768   89.2500   16.8948 C.3     1  UNL1        0.0290
     51 C          62.5699   88.2733   17.1611 C.3     1  UNL1        0.0367
     52 C          62.8904   86.8896   17.6434 C.3     1  UNL1        0.1426
     53 C          61.1666   85.5897   16.1982 C.3     1  UNL1        0.1741
     54 O          61.8764   85.7931   17.5039 O.3     1  UNL1       -0.3511
@<TRIPOS>UNITY_ATOM_ATTR
46 1
charge -1
@<TRIPOS>BOND
     1    53    54    1
     2    54    52    1
     3    52    51    1
     4    51    50    1
     5    50    34    1
     6    34    35   ar
     7    35    36   ar
     8    36    33    1
     9    33     1    1
    10     1     2   am
    11     2     3    2
    12     4     2    1
    13     4     5    1
    14     5     6    1
    15     6     7    1
    16     7     8    1
    17     8     9    1
    18     9    11    1
    19    11    12   ar
    20    12    13   ar
    21    13    14   ar
    22    14    17    1
    23    17    18    1
    24    18    19    1
    25    19    20    1
    26    20    21    1
    27    21    22   ar
    28    22    23    1
    29    22    24   ar
    30    24    25   ar
    31    25    26    1
    32    25    27   ar
    33    27    28   ar
    34    28    29    1
    35    14    15   ar
    36    15    16   ar
    37     1    30    1
    38    30    31    1
    39    31    32    1
    40    36    37   ar
    41    37    38   ar
    42    38    40    1
    43    40    41    1
    44    41    42    1
    45    42    43    1
    46    43    44    1
    47    43    48    1
    48    48    49    1
    49    43    45    1
    50    45    46   ar
    51    45    47   ar
    52    38    39   ar
    53    39    34   ar
    54     9     4    1
    55    16    11   ar
    56    32    30    1
    57    28    21   ar
    58     6    10    1
@<TRIPOS>MOLECULE
*****
 54 58 0 0 0
SMALL
GASTEIGER

@<TRIPOS>ATOM
      1 N          62.9373   84.8566   11.0070 N.am    1  UNL1       -0.2770
      2 C          62.2588   84.6073   12.3214 C.2     1  UNL1        0.2270
      3 O          61.3238   85.6334   12.8894 O.2     1  UNL1       -0.2748
      4 C          62.5154   83.3317   13.0678 C.3     1  UNL1        0.0964
      5 C          62.3743   82.0121   12.3684 C.3     1  UNL1        0.0780
      6 N          62.6309   80.7366   13.1147 N.3     1  UNL1       -0.2970
      7 C          63.0286   80.7805   14.5605 C.3     1  UNL1        0.0689
      8 C          63.1696   82.1000   15.2597 C.3     1  UNL1        0.0220
      9 C          62.9130   83.3756   14.5134 C.3     1  UNL1        0.0337
     10 H          63.3777   80.2502   12.6186 H       1  UNL1        0.1233
     11 C          63.0541   84.6950   15.2127 C.ar    1  UNL1       -0.0217
     12 C          62.1740   85.0216   16.3827 C.ar    1  UNL1       -0.0012
     13 C          62.3151   86.3411   17.0820 C.ar    1  UNL1        0.0366
     14 C          63.3361   87.3341   16.6113 C.ar    1  UNL1        0.1387
     15 C          64.2161   87.0075   15.4413 C.ar    1  UNL1        0.0366
     16 C          64.0751   85.6880   14.7420 C.ar    1  UNL1       -0.0012
     17 O          63.4771   88.6536   17.3107 O.3     1  UNL1       -0.4714
     18 C          62.9510   89.9028   16.6684 C.3     1  UNL1        0.2525
     19 C          63.8760   90.7954   15.8952 C.3     1  UNL1        0.2525
     20 O          64.7356   90.2227   14.8074 O.3     1  UNL1       -0.4697
     21 C          65.1381   91.0766   13.6418 C.ar    1  UNL1        0.1596
     22 C          64.2288   91.2033   12.4555 C.ar    1  UNL1        0.0921
     23 CL         62.9171   90.4760   12.4350 Cl      1  UNL1       -0.0791
     24 C          64.6313   92.0572   11.2898 C.ar    1  UNL1        0.0103
     25 C          65.9430   92.7845   11.3104 C.ar    1  UNL1       -0.0200
     26 C          66.3455   93.6384   10.1447 C.3     1  UNL1        0.0311
     27 C          66.8523   92.6578   12.4967 C.ar    1  UNL1        0.0103
     28 C          66.4498   91.8039   13.6623 C.ar    1  UNL1        0.0921
     29 CL         67.3590   91.6773   14.8486 Cl      1  UNL1       -0.0791
     30 C          63.8724   83.8305   10.4391 C.3     1  UNL1        0.0758
     31 C          64.3160   82.9701    9.2932 C.3     1  UNL1        0.0215
     32 C          65.0482   82.9134   10.6011 C.3     1  UNL1        0.0215
     33 C          62.6807   86.1322   10.2607 C.3     1  UNL1        0.1201
     34 C          61.0998   85.0921    6.7723 C.ar    1  UNL1       -0.0194
     35 C          61.9879   85.0961    7.9810 C.ar    1  UNL1       -0.0067
     36 C          61.7925   86.1282    9.0519 C.ar    1  UNL1        0.0004
     37 C          60.7090   87.1562    8.9139 C.ar    1  UNL1        0.0343
     38 C          59.8209   87.1522    7.7051 C.ar    1  UNL1        0.1380
     39 C          60.0163   86.1201    6.6343 C.ar    1  UNL1        0.0326
     40 O          58.7373   88.1803    7.5671 O.3     1  UNL1       -0.4754
     41 C          59.0926   89.6145    7.3090 C.3     1  UNL1        0.2082
     42 C          59.4408   90.0627    5.9204 C.3     1  UNL1        0.0799
     43 C          58.5894   91.0843    5.2265 C.3     1  UNL1        0.1280
     44 C          57.7381   92.1059    4.5326 C.3     1  UNL1        0.0355
     45 C          59.8203   91.7179    4.6492 C.2     1  UNL1        0.0748
     46 O          59.7130   93.0016    3.8807 O.co2   1  UNL1       -0.5468
     47 O          61.1586   91.0679    4.8404 O.co2   1  UNL1       -0.5468
     48 O          57.3585   90.4506    5.8038 O.3     1  UNL1       -0.3506
     49 C          56.0035   90.8421    5.2932 C.3     1  UNL1        0.1744
     50 C          61.2952   84.0600    5.7015 C.3     1  UNL1        0.0290
     51 C          61.9175   84.4460    4.3924 C.3     1  UNL1        0.0367
     52 C          61.2735   84.0283    3.1037 C.3     1  UNL1        0.1426
     53 C          62.5315   85.9107    1.8294 C.3     1  UNL1        0.1741
     54 O          61.6969   84.6644    1.8129 O.3     1  UNL1       -0.3511
@<TRIPOS>UNITY_ATOM_ATTR
46 1
charge -1
@<TRIPOS>BOND
     1    53    54    1
     2    54    52    1
     3    52    51    1
     4    51    50    1
     5    50    34    1
     6    34    35   ar
     7    35    36   ar
     8    36    33    1
     9    33     1    1
    10     1     2   am
    11     2     3    2
    12     4     2    1
    13     4     5    1
    14     5     6    1
    15     6     7    1
    16     7     8    1
    17     8     9    1
    18     9    11    1
    19    11    12   ar
    20    12    13   ar
    21    13    14   ar
    22    14    17    1
    23    17    18    1
    24    18    19    1
    25    19    20    1
    26    20    21    1
    27    21    22   ar
    28    22    23    1
    29    22    24   ar
    30    24    25   ar
    31    25    26    1
    32    25    27   ar
    33    27    28   ar
    34    28    29    1
    35    14    15   ar
    36    15    16   ar
    37     1    30    1
    38    30    31    1
    39    31    32    1
    40    36    37   ar
    41    37    38   ar
    42    38    40    1
    43    40    41    1
    44    41    42    1
    45    42    43    1
    46    43    44    1
    47    43    48    1
    48    48    49    1
    49    43    45    1
    50    45    46   ar
    51    45    47   ar
    52    38    39   ar
    53    39    34   ar
    54     9     4    1
    55    16    11   ar
    56    32    30    1
    57    28    21   ar
    58     6    10    1
@<TRIPOS>MOLECULE
*****
 54 58 0 0 0
SMALL
GASTEIGER

@<TRIPOS>ATOM
      1 N          62.0406   86.6067   10.9146 N.am    1  UNL1       -0.2770
      2 C          62.0209   86.4960    9.4188 C.2     1  UNL1        0.2270
      3 O          63.1626   85.8403    8.7002 O.2     1  UNL1       -0.2748
      4 C          60.8595   87.0411    8.6416 C.3     1  UNL1        0.0964
      5 C          60.0395   86.1280    7.7790 C.3     1  UNL1        0.0780
      6 N          58.8780   86.6730    7.0019 N.3     1  UNL1       -0.2970
      7 C          58.5366   88.1312    7.0874 C.3     1  UNL1        0.0689
      8 C          59.3565   89.0442    7.9499 C.3     1  UNL1        0.0220
      9 C          60.5179   88.4992    8.7271 C.3     1  UNL1        0.0337
     10 H          58.0519   86.1588    7.3075 H       1  UNL1        0.1233
     11 C          61.3379   89.4122    9.5896 C.ar    1  UNL1       -0.0217
     12 C          62.8345   89.3940    9.4904 C.ar    1  UNL1       -0.0012
     13 C          63.6545   90.3070   10.3530 C.ar    1  UNL1        0.0366
     14 C          62.9778   91.2382   11.3148 C.ar    1  UNL1        0.1387
     15 C          61.4813   91.2564   11.4140 C.ar    1  UNL1        0.0366
     16 C          60.6612   90.3434   10.5514 C.ar    1  UNL1       -0.0012
     17 O          63.7979   92.1513   12.1774 O.3     1  UNL1       -0.4714
     18 C          65.2585   92.3402   11.8931 C.3     1  UNL1        0.2525
     19 C          66.0912   93.2070   12.7905 C.3     1  UNL1        0.2525
     20 O          67.1289   94.1167   12.2025 O.3     1  UNL1       -0.4697
     21 C          66.8724   94.7987   10.8915 C.ar    1  UNL1        0.1596
     22 C          66.2609   96.1681   10.8655 C.ar    1  UNL1        0.0921
     23 CL         65.9060   96.8556   12.1506 Cl      1  UNL1       -0.0791
     24 C          66.0043   96.8503    9.5544 C.ar    1  UNL1        0.0103
     25 C          66.3592   96.1628    8.2692 C.ar    1  UNL1       -0.0200
     26 C          66.1027   96.8449    6.9582 C.3     1  UNL1        0.0311
     27 C          66.9707   94.7933    8.2953 C.ar    1  UNL1        0.0103
     28 C          67.2273   94.1113    9.6063 C.ar    1  UNL1        0.0921
     29 CL         67.8387   92.7419    9.6323 Cl      1  UNL1       -0.0791
     30 C          60.8988   87.2624   11.6332 C.3     1  UNL1        0.0758
     31 C          60.3781   88.0497   12.7990 C.3     1  UNL1        0.0215
     32 C          59.4420   87.6108   11.7122 C.3     1  UNL1        0.0215
     33 C          63.2020   86.0616   11.6918 C.3     1  UNL1        0.1201
     34 C          63.1481   85.4962   15.6195 C.ar    1  UNL1       -0.0194
     35 C          63.3751   86.1380   14.2830 C.ar    1  UNL1       -0.0067
     36 C          62.9750   85.4197   13.0284 C.ar    1  UNL1        0.0004
     37 C          62.3480   84.0595   13.1104 C.ar    1  UNL1        0.0343
     38 C          62.1211   83.4177   14.4470 C.ar    1  UNL1        0.1380
     39 C          62.5211   84.1360   15.7015 C.ar    1  UNL1        0.0326
     40 O          61.4940   82.0574   14.5290 O.3     1  UNL1       -0.4754
     41 C          61.7209   81.0596   13.4323 C.3     1  UNL1        0.2082
     42 C          63.0877   80.8988   12.8356 C.3     1  UNL1        0.0799
     43 C          63.2434   80.7233   11.3541 C.3     1  UNL1        0.1280
     44 C          63.3990   80.5477    9.8725 C.3     1  UNL1        0.0355
     45 C          64.0470   81.9881   11.2886 C.2     1  UNL1        0.0748
     46 O          64.8645   82.4193   12.4701 O.co2   1  UNL1       -0.5468
     47 O          64.0332   82.8218   10.0417 O.co2   1  UNL1       -0.5468
     48 O          62.4398   79.4584   11.4195 O.3     1  UNL1       -0.3506
     49 C          62.7250   78.3383   10.4635 C.3     1  UNL1        0.1744
     50 C          63.5481   86.2145   16.8741 C.3     1  UNL1        0.0290
     51 C          62.7297   87.3693   17.3706 C.3     1  UNL1        0.0367
     52 C          63.1454   88.7750   17.0522 C.3     1  UNL1        0.1426
     53 C          63.8417   90.5336   15.2710 C.3     1  UNL1        0.1741
     54 O          63.7084   89.1027   15.7010 O.3     1  UNL1       -0.3511
@<TRIPOS>UNITY_ATOM_ATTR
46 1
charge -1
@<TRIPOS>BOND
     1    53    54    1
     2    54    52    1
     3    52    51    1
     4    51    50    1
     5    50    34    1
     6    34    35   ar
     7    35    36   ar
     8    36    33    1
     9    33     1    1
    10     1     2   am
    11     2     3    2
    12     4     2    1
    13     4     5    1
    14     5     6    1
    15     6     7    1
    16     7     8    1
    17     8     9    1
    18     9    11    1
    19    11    12   ar
    20    12    13   ar
    21    13    14   ar
    22    14    17    1
    23    17    18    1
    24    18    19    1
    25    19    20    1
    26    20    21    1
    27    21    22   ar
    28    22    23    1
    29    22    24   ar
    30    24    25   ar
    31    25    26    1
    32    25    27   ar
    33    27    28   ar
    34    28    29    1
    35    14    15   ar
    36    15    16   ar
    37     1    30    1
    38    30    31    1
    39    31    32    1
    40    36    37   ar
    41    37    38   ar
    42    38    40    1
    43    40    41    1
    44    41    42    1
    45    42    43    1
    46    43    44    1
    47    43    48    1
    48    48    49    1
    49    43    45    1
    50    45    46   ar
    51    45    47   ar
    52    38    39   ar
    53    39    34   ar
    54     9     4    1
    55    16    11   ar
    56    32    30    1
    57    28    21   ar
    58     6    10    1
