@<TRIPOS>MOLECULE
*****
 31 35 0 0 0
SMALL
GASTEIGER

@<TRIPOS>ATOM
      1 N          64.4417   89.5111   15.1378 N.ar    1  UNL1       -0.2729
      2 C          64.8116   88.1950   14.5206 C.ar    1  UNL1        0.0860
      3 C          64.2285   86.9229   15.0608 C.ar    1  UNL1        0.0561
      4 C          63.2755   86.9670   16.2184 C.ar    1  UNL1        0.1453
      5 C          62.9056   88.2831   16.8356 C.ar    1  UNL1        0.0980
      6 C          63.4887   89.5552   16.2953 C.ar    1  UNL1        0.2679
      7 O          63.1188   90.8713   16.9126 O.2     1  UNL1       -0.2665
      8 C          64.6108   92.5172   10.0657 C.3     1  UNL1        0.0518
      9 C          65.3209   93.0693   11.2661 C.ar    1  UNL1        0.0574
     10 C          65.3781   92.4366   12.6250 C.ar    1  UNL1        0.0340
     11 C          64.7950   91.1646   13.1652 C.ar    1  UNL1        0.0203
     12 C          65.0248   90.7832   14.5975 C.ar    1  UNL1        0.0670
     13 C          65.8377   91.6738   15.4897 C.ar    1  UNL1        0.0192
     14 C          66.4208   92.9459   14.9494 C.ar    1  UNL1        0.0224
     15 C          66.1910   93.3272   13.5171 C.ar    1  UNL1        0.1021
     16 N          66.6361   94.5104   12.7096 N.ar    1  UNL1       -0.1697
     17 N          66.0984   94.3509   11.3184 N.ar    1  UNL1       -0.2569
     18 C          66.3024   95.3056   10.1795 C.3     1  UNL1        0.1049
     19 C          67.0605   95.7231    8.9544 C.3     1  UNL1        0.0263
     20 C          65.8976   96.5414    9.4320 C.3     1  UNL1        0.0263
     21 O          62.6924   85.6949   16.7586 O.3     1  UNL1       -0.4704
     22 C          61.9827   84.7455   15.8394 C.3     1  UNL1        0.2325
     23 C          62.7119   84.1420   14.6758 C.ar    1  UNL1        0.0281
     24 C          63.7845   83.0964   14.7538 C.ar    1  UNL1        0.0347
     25 S          64.2321   82.7863   13.3561 S.2     1  UNL1       -0.0829
     26 C          63.4360   83.6403   12.4142 C.ar    1  UNL1        0.1008
     27 C          62.4965   84.4781   13.2299 C.ar    1  UNL1        0.0102
     28 C          63.5580   83.6540   10.9193 C.3     1  UNL1        0.4241
     29 F          63.6799   83.6677    9.4243 F       1  UNL1       -0.1654
     30 F          64.7103   82.6975   11.0046 F       1  UNL1       -0.1654
     31 F          62.4056   84.6105   10.8340 F       1  UNL1       -0.1654
@<TRIPOS>BOND
     1     8     9    1
     2     9    10   ar
     3    10    11   ar
     4    11    12   ar
     5    12     1    1
     6     1     2   ar
     7     2     3   ar
     8     3     4   ar
     9     4    21    1
    10    21    22    1
    11    22    23    1
    12    23    24   ar
    13    24    25   ar
    14    25    26   ar
    15    26    28    1
    16    28    29    1
    17    28    30    1
    18    28    31    1
    19    26    27   ar
    20     4     5   ar
    21     5     6   ar
    22     6     7    2
    23    12    13   ar
    24    13    14   ar
    25    14    15   ar
    26    15    16   ar
    27    16    17   ar
    28    17    18    1
    29    18    19    1
    30    19    20    1
    31    17     9   ar
    32    20    18    1
    33    15    10   ar
    34     6     1   ar
    35    27    23   ar
@<TRIPOS>MOLECULE
*****
 31 35 0 0 0
SMALL
GASTEIGER

@<TRIPOS>ATOM
      1 N          63.6399   87.1461   13.7153 N.ar    1  UNL1       -0.2729
      2 C          64.3933   87.6870   14.8942 C.ar    1  UNL1        0.0860
      3 C          64.6836   89.1556   14.9890 C.ar    1  UNL1        0.0561
      4 C          64.2205   90.0833   13.9050 C.ar    1  UNL1        0.1453
      5 C          63.4671   89.5423   12.7261 C.ar    1  UNL1        0.0980
      6 C          63.1768   88.0736   12.6313 C.ar    1  UNL1        0.2679
      7 O          62.4235   87.5327   11.4524 O.2     1  UNL1       -0.2665
      8 C          63.8093   82.8355    9.6927 C.3     1  UNL1        0.0518
      9 C          63.3599   82.5157   11.0876 C.ar    1  UNL1        0.0574
     10 C          63.2586   83.4874   12.2258 C.ar    1  UNL1        0.0340
     11 C          63.5489   84.9560   12.3206 C.ar    1  UNL1        0.0203
     12 C          63.3496   85.6774   13.6204 C.ar    1  UNL1        0.0670
     13 C          62.8601   84.9304   14.8255 C.ar    1  UNL1        0.0192
     14 C          62.5698   83.4618   14.7307 C.ar    1  UNL1        0.0224
     15 C          62.7691   82.7403   13.4309 C.ar    1  UNL1        0.1021
     16 N          62.5678   81.3069   13.0374 N.ar    1  UNL1       -0.1697
     17 N          62.9330   81.1680   11.5892 N.ar    1  UNL1       -0.2569
     18 C          62.8804   79.9036   10.7840 C.3     1  UNL1        0.1049
     19 C          62.8620   79.2104    9.4539 C.3     1  UNL1        0.0263
     20 C          62.8078   78.4068   10.7193 C.3     1  UNL1        0.0263
     21 O          64.5108   91.5518   13.9999 O.3     1  UNL1       -0.4704
     22 C          65.9129   92.0525   13.8172 C.3     1  UNL1        0.2325
     23 C          66.3576   92.5663   12.4799 C.ar    1  UNL1        0.0281
     24 C          65.8717   93.8174   11.8101 C.ar    1  UNL1        0.0347
     25 S          66.5799   93.9435   10.4939 S.2     1  UNL1       -0.0829
     26 C          67.5036   92.7703   10.3502 C.ar    1  UNL1        0.1008
     27 C          67.3662   91.9192   11.5777 C.ar    1  UNL1        0.0102
     28 C          68.4062   92.4965    9.1839 C.3     1  UNL1        0.4241
     29 F          69.3088   92.2225    8.0176 F       1  UNL1       -0.1654
     30 F          68.7973   93.9441    9.1466 F       1  UNL1       -0.1654
     31 F          68.0152   91.0487    9.2212 F       1  UNL1       -0.1654
@<TRIPOS>BOND
     1     8     9    1
     2     9    10   ar
     3    10    11   ar
     4    11    12   ar
     5    12     1    1
     6     1     2   ar
     7     2     3   ar
     8     3     4   ar
     9     4    21    1
    10    21    22    1
    11    22    23    1
    12    23    24   ar
    13    24    25   ar
    14    25    26   ar
    15    26    28    1
    16    28    29    1
    17    28    30    1
    18    28    31    1
    19    26    27   ar
    20     4     5   ar
    21     5     6   ar
    22     6     7    2
    23    12    13   ar
    24    13    14   ar
    25    14    15   ar
    26    15    16   ar
    27    16    17   ar
    28    17    18    1
    29    18    19    1
    30    19    20    1
    31    17     9   ar
    32    20    18    1
    33    15    10   ar
    34     6     1   ar
    35    27    23   ar
@<TRIPOS>MOLECULE
*****
 31 35 0 0 0
SMALL
GASTEIGER

@<TRIPOS>ATOM
      1 N          63.8254   88.9394   13.1488 N.ar    1  UNL1       -0.2729
      2 C          64.4975   89.0536   14.4850 C.ar    1  UNL1        0.0860
      3 C          64.9729   90.3897   14.9736 C.ar    1  UNL1        0.0561
      4 C          64.7762   91.6116   14.1261 C.ar    1  UNL1        0.1453
      5 C          64.1042   91.4974   12.7900 C.ar    1  UNL1        0.0980
      6 C          63.6288   90.1613   12.3013 C.ar    1  UNL1        0.2679
      7 O          62.9567   90.0471   10.9652 O.2     1  UNL1       -0.2665
      8 C          64.0424   83.2768   14.7859 C.3     1  UNL1        0.0518
      9 C          63.3293   83.6440   13.5183 C.ar    1  UNL1        0.0574
     10 C          63.1808   85.0281   12.9595 C.ar    1  UNL1        0.0340
     11 C          63.6562   86.3641   13.4481 C.ar    1  UNL1        0.0203
     12 C          63.3500   87.6032   12.6602 C.ar    1  UNL1        0.0670
     13 C          62.5685   87.5062   11.3835 C.ar    1  UNL1        0.0192
     14 C          62.0931   86.1701   10.8949 C.ar    1  UNL1        0.0224
     15 C          62.3992   84.9310   11.6829 C.ar    1  UNL1        0.1021
     16 N          62.0648   83.4870   11.4527 N.ar    1  UNL1       -0.1697
     17 N          62.6396   82.6916   12.5871 N.ar    1  UNL1       -0.2569
     18 C          62.5419   81.2048   12.7599 C.3     1  UNL1        0.1049
     19 C          62.6835   79.8200   12.2012 C.3     1  UNL1        0.0263
     20 C          62.2310   80.0144   13.6180 C.3     1  UNL1        0.0263
     21 O          65.2516   92.9477   14.6148 O.3     1  UNL1       -0.4704
     22 C          66.5078   93.5473   14.0557 C.3     1  UNL1        0.2325
     23 C          66.7028   93.6303   12.5708 C.ar    1  UNL1        0.0281
     24 C          66.0820   94.6435   11.6554 C.ar    1  UNL1        0.0347
     25 S          66.5484   94.3542   10.2594 S.2     1  UNL1       -0.0829
     26 C          67.4575   93.1622   10.3120 C.ar    1  UNL1        0.1008
     27 C          67.5529   92.7148   11.7406 C.ar    1  UNL1        0.0102
     28 C          68.1496   92.5288    9.1417 C.3     1  UNL1        0.4241
     29 F          68.8418   91.8953    7.9713 F       1  UNL1       -0.1654
     30 F          67.9723   93.7923    8.3530 F       1  UNL1       -0.1654
     31 F          68.3270   91.2652    9.9304 F       1  UNL1       -0.1654
@<TRIPOS>BOND
     1     8     9    1
     2     9    10   ar
     3    10    11   ar
     4    11    12   ar
     5    12     1    1
     6     1     2   ar
     7     2     3   ar
     8     3     4   ar
     9     4    21    1
    10    21    22    1
    11    22    23    1
    12    23    24   ar
    13    24    25   ar
    14    25    26   ar
    15    26    28    1
    16    28    29    1
    17    28    30    1
    18    28    31    1
    19    26    27   ar
    20     4     5   ar
    21     5     6   ar
    22     6     7    2
    23    12    13   ar
    24    13    14   ar
    25    14    15   ar
    26    15    16   ar
    27    16    17   ar
    28    17    18    1
    29    18    19    1
    30    19    20    1
    31    17     9   ar
    32    20    18    1
    33    15    10   ar
    34     6     1   ar
    35    27    23   ar
@<TRIPOS>MOLECULE
*****
 31 35 0 0 0
SMALL
GASTEIGER

@<TRIPOS>ATOM
      1 N          63.7346   87.2849   15.2142 N.ar    1  UNL1       -0.2729
      2 C          64.2331   88.3016   14.2305 C.ar    1  UNL1        0.0860
      3 C          64.2045   89.7601   14.5797 C.ar    1  UNL1        0.0561
      4 C          63.6772   90.2019   15.9127 C.ar    1  UNL1        0.1453
      5 C          63.1787   89.1852   16.8965 C.ar    1  UNL1        0.0980
      6 C          63.2074   87.7266   16.5472 C.ar    1  UNL1        0.2679
      7 O          62.7088   86.7099   17.5309 O.2     1  UNL1       -0.2665
      8 C          62.6166   83.8029   10.5863 C.3     1  UNL1        0.0518
      9 C          63.0774   83.1833   11.8723 C.ar    1  UNL1        0.0574
     10 C          63.4037   83.9188   13.1382 C.ar    1  UNL1        0.0340
     11 C          63.3750   85.3773   13.4874 C.ar    1  UNL1        0.0203
     12 C          63.7633   85.8264   14.8649 C.ar    1  UNL1        0.0670
     13 C          64.1803   84.8170   15.8931 C.ar    1  UNL1        0.0192
     14 C          64.2091   83.3585   15.5438 C.ar    1  UNL1        0.0224
     15 C          63.8207   82.9094   14.1664 C.ar    1  UNL1        0.1021
     16 N          63.7521   81.5501   13.5359 N.ar    1  UNL1       -0.1697
     17 N          63.2927   81.7193   12.1181 N.ar    1  UNL1       -0.2569
     18 C          63.0851   80.6179   11.1211 C.3     1  UNL1        0.1049
     19 C          63.0246   80.1486    9.6978 C.3     1  UNL1        0.0263
     20 C          62.7859   79.1798   10.8178 C.3     1  UNL1        0.0263
     21 O          63.6485   91.6603   16.2620 O.3     1  UNL1       -0.4704
     22 C          64.9180   92.3677   16.6337 C.3     1  UNL1        0.2325
     23 C          66.0831   92.3634   15.6890 C.ar    1  UNL1        0.0281
     24 C          67.5253   92.5286   16.0671 C.ar    1  UNL1        0.0347
     25 S          68.3442   92.4605   14.8122 S.2     1  UNL1       -0.0829
     26 C          67.4081   92.2532   13.6585 C.ar    1  UNL1        0.1008
     27 C          66.0107   92.1932   14.2005 C.ar    1  UNL1        0.0102
     28 C          67.8006   92.1280   12.2162 C.3     1  UNL1        0.4241
     29 F          68.1931   92.0027   10.7739 F       1  UNL1       -0.1654
     30 F          66.5707   92.8875   11.8156 F       1  UNL1       -0.1654
     31 F          69.0305   91.3684   12.6168 F       1  UNL1       -0.1654
@<TRIPOS>BOND
     1     8     9    1
     2     9    10   ar
     3    10    11   ar
     4    11    12   ar
     5    12     1    1
     6     1     2   ar
     7     2     3   ar
     8     3     4   ar
     9     4    21    1
    10    21    22    1
    11    22    23    1
    12    23    24   ar
    13    24    25   ar
    14    25    26   ar
    15    26    28    1
    16    28    29    1
    17    28    30    1
    18    28    31    1
    19    26    27   ar
    20     4     5   ar
    21     5     6   ar
    22     6     7    2
    23    12    13   ar
    24    13    14   ar
    25    14    15   ar
    26    15    16   ar
    27    16    17   ar
    28    17    18    1
    29    18    19    1
    30    19    20    1
    31    17     9   ar
    32    20    18    1
    33    15    10   ar
    34     6     1   ar
    35    27    23   ar
@<TRIPOS>MOLECULE
*****
 31 35 0 0 0
SMALL
GASTEIGER

@<TRIPOS>ATOM
      1 N          63.6581   88.7442   12.8752 N.ar    1  UNL1       -0.2729
      2 C          63.4793   89.9020   11.9385 C.ar    1  UNL1        0.0860
      3 C          63.9182   91.2755   12.3515 C.ar    1  UNL1        0.0561
      4 C          64.5359   91.4914   13.7013 C.ar    1  UNL1        0.1453
      5 C          64.7146   90.3335   14.6381 C.ar    1  UNL1        0.0980
      6 C          64.2757   88.9599   14.2250 C.ar    1  UNL1        0.2679
      7 O          64.4544   87.8021   15.1618 O.2     1  UNL1       -0.2665
      8 C          64.0394   83.1876   14.8171 C.3     1  UNL1        0.0518
      9 C          63.3125   83.4650   13.5346 C.ar    1  UNL1        0.0574
     10 C          63.1234   84.8118   12.9019 C.ar    1  UNL1        0.0340
     11 C          63.5623   86.1853   13.3150 C.ar    1  UNL1        0.0203
     12 C          63.2191   87.3705   12.4621 C.ar    1  UNL1        0.0670
     13 C          62.4369   87.1822   11.1961 C.ar    1  UNL1        0.0192
     14 C          61.9980   85.8087   10.7830 C.ar    1  UNL1        0.0224
     15 C          62.3412   84.6235   11.6359 C.ar    1  UNL1        0.1021
     16 N          62.0470   83.1602   11.4862 N.ar    1  UNL1       -0.1697
     17 N          62.6473   82.4442   12.6597 N.ar    1  UNL1       -0.2569
     18 C          62.5920   80.9669   12.9136 C.3     1  UNL1        0.1049
     19 C          62.6014   79.8122   13.8709 C.3     1  UNL1        0.0263
     20 C          62.4870   79.5630   12.3962 C.3     1  UNL1        0.0263
     21 O          64.9748   92.8649   14.1143 O.3     1  UNL1       -0.4704
     22 C          66.2945   93.4030   13.6464 C.3     1  UNL1        0.2325
     23 C          66.5215   93.6685   12.1877 C.ar    1  UNL1        0.0281
     24 C          67.0957   92.7022   11.1945 C.ar    1  UNL1        0.0347
     25 S          67.1432   93.3835    9.8590 S.2     1  UNL1       -0.0829
     26 C          66.5984   94.7710   10.0268 C.ar    1  UNL1        0.1008
     27 C          66.2141   94.9471   11.4660 C.ar    1  UNL1        0.0102
     28 C          66.4618   95.8013    8.9453 C.3     1  UNL1        0.4241
     29 F          66.3253   96.8316    7.8637 F       1  UNL1       -0.1654
     30 F          65.4666   96.5485    9.7828 F       1  UNL1       -0.1654
     31 F          67.4570   95.0542    8.1078 F       1  UNL1       -0.1654
@<TRIPOS>BOND
     1     8     9    1
     2     9    10   ar
     3    10    11   ar
     4    11    12   ar
     5    12     1    1
     6     1     2   ar
     7     2     3   ar
     8     3     4   ar
     9     4    21    1
    10    21    22    1
    11    22    23    1
    12    23    24   ar
    13    24    25   ar
    14    25    26   ar
    15    26    28    1
    16    28    29    1
    17    28    30    1
    18    28    31    1
    19    26    27   ar
    20     4     5   ar
    21     5     6   ar
    22     6     7    2
    23    12    13   ar
    24    13    14   ar
    25    14    15   ar
    26    15    16   ar
    27    16    17   ar
    28    17    18    1
    29    18    19    1
    30    19    20    1
    31    17     9   ar
    32    20    18    1
    33    15    10   ar
    34     6     1   ar
    35    27    23   ar
@<TRIPOS>MOLECULE
*****
 31 35 0 0 0
SMALL
GASTEIGER

@<TRIPOS>ATOM
      1 N          62.2191   89.9376   11.8062 N.ar    1  UNL1       -0.2729
      2 C          62.7160   89.8395   10.3943 C.ar    1  UNL1        0.0860
      3 C          61.7935   89.3793    9.3047 C.ar    1  UNL1        0.0561
      4 C          60.3739   89.0173    9.6270 C.ar    1  UNL1        0.1453
      5 C          59.8770   89.1154   11.0389 C.ar    1  UNL1        0.0980
      6 C          60.7996   89.5756   12.1285 C.ar    1  UNL1        0.2679
      7 O          60.3026   89.6737   13.5403 O.2     1  UNL1       -0.2665
      8 C          67.1584   93.1063   12.4008 C.3     1  UNL1        0.0518
      9 C          66.5157   92.5191   13.6223 C.ar    1  UNL1        0.0574
     10 C          65.2643   91.6925   13.6492 C.ar    1  UNL1        0.0340
     11 C          64.3418   91.2324   12.5596 C.ar    1  UNL1        0.0203
     12 C          63.1417   90.3977   12.8958 C.ar    1  UNL1        0.0670
     13 C          62.8641   90.0232   14.3215 C.ar    1  UNL1        0.0192
     14 C          63.7866   90.4833   15.4110 C.ar    1  UNL1        0.0224
     15 C          64.9867   91.3179   15.0749 C.ar    1  UNL1        0.1021
     16 N          66.0665   91.9132   15.9291 N.ar    1  UNL1       -0.1697
     17 N          67.0115   92.6555   15.0314 N.ar    1  UNL1       -0.2569
     18 C          68.2370   93.4031   15.4664 C.3     1  UNL1        0.1049
     19 C          69.7256   93.4686   15.6395 C.3     1  UNL1        0.0263
     20 C          68.8712   94.6323   16.0468 C.3     1  UNL1        0.0263
     21 O          59.4514   88.5572    8.5374 O.3     1  UNL1       -0.4704
     22 C          59.4970   87.1334    8.0676 C.3     1  UNL1        0.2325
     23 C          60.6928   86.2808    8.3727 C.ar    1  UNL1        0.0281
     24 C          61.6097   85.6548    7.3640 C.ar    1  UNL1        0.0347
     25 S          62.6653   84.8917    8.1079 S.2     1  UNL1       -0.0829
     26 C          62.4007   85.0460    9.5764 C.ar    1  UNL1        0.1008
     27 C          61.1817   85.9046    9.7400 C.ar    1  UNL1        0.0102
     28 C          63.2127   84.4470   10.6862 C.3     1  UNL1        0.4241
     29 F          64.0248   83.8480   11.7961 F       1  UNL1       -0.1654
     30 F          62.3796   85.1834   11.6931 F       1  UNL1       -0.1654
     31 F          64.0459   83.7107    9.6794 F       1  UNL1       -0.1654
@<TRIPOS>BOND
     1     8     9    1
     2     9    10   ar
     3    10    11   ar
     4    11    12   ar
     5    12     1    1
     6     1     2   ar
     7     2     3   ar
     8     3     4   ar
     9     4    21    1
    10    21    22    1
    11    22    23    1
    12    23    24   ar
    13    24    25   ar
    14    25    26   ar
    15    26    28    1
    16    28    29    1
    17    28    30    1
    18    28    31    1
    19    26    27   ar
    20     4     5   ar
    21     5     6   ar
    22     6     7    2
    23    12    13   ar
    24    13    14   ar
    25    14    15   ar
    26    15    16   ar
    27    16    17   ar
    28    17    18    1
    29    18    19    1
    30    19    20    1
    31    17     9   ar
    32    20    18    1
    33    15    10   ar
    34     6     1   ar
    35    27    23   ar
@<TRIPOS>MOLECULE
*****
 31 35 0 0 0
SMALL
GASTEIGER

@<TRIPOS>ATOM
      1 N          63.7697   88.2229   13.0687 N.ar    1  UNL1       -0.2729
      2 C          64.3084   88.0887   14.4622 C.ar    1  UNL1        0.0860
      3 C          64.1781   86.7861   15.1944 C.ar    1  UNL1        0.0561
      4 C          63.5092   85.6176   14.5332 C.ar    1  UNL1        0.1453
      5 C          62.9705   85.7518   13.1397 C.ar    1  UNL1        0.0980
      6 C          63.1008   87.0544   12.4074 C.ar    1  UNL1        0.2679
      7 O          62.5621   87.1886   11.0140 O.2     1  UNL1       -0.2665
      8 C          66.7023   93.3175   13.5544 C.3     1  UNL1        0.0518
      9 C          65.7665   93.1206   12.3987 C.ar    1  UNL1        0.0574
     10 C          64.9478   91.8936   12.1264 C.ar    1  UNL1        0.0340
     11 C          64.8176   90.5910   12.8587 C.ar    1  UNL1        0.0203
     12 C          63.9000   89.5255   12.3364 C.ar    1  UNL1        0.0670
     13 C          63.1126   89.7627   11.0819 C.ar    1  UNL1        0.0192
     14 C          63.2429   91.0653   10.3496 C.ar    1  UNL1        0.0224
     15 C          64.1605   92.1307   10.8719 C.ar    1  UNL1        0.1021
     16 N          64.4926   93.5043   10.3689 N.ar    1  UNL1       -0.1697
     17 N          65.4851   94.1161   11.3126 N.ar    1  UNL1       -0.2569
     18 C          66.0901   95.4833   11.1913 C.3     1  UNL1        0.1049
     19 C          66.9072   96.4787   10.4223 C.3     1  UNL1        0.0263
     20 C          66.3209   96.8560   11.7504 C.3     1  UNL1        0.0263
     21 O          63.3789   84.3150   15.2655 O.3     1  UNL1       -0.4704
     22 C          62.1902   83.4332   15.0218 C.3     1  UNL1        0.2325
     23 C          62.3172   82.2321   14.1322 C.ar    1  UNL1        0.0281
     24 C          62.1318   80.8031   14.5487 C.ar    1  UNL1        0.0347
     25 S          62.3519   79.9370   13.3439 S.2     1  UNL1       -0.0829
     26 C          62.6732   80.8308   12.1829 C.ar    1  UNL1        0.1008
     27 C          62.6517   82.2492   12.6701 C.ar    1  UNL1        0.0102
     28 C          62.9647   80.3844   10.7808 C.3     1  UNL1        0.4241
     29 F          63.2563   79.9381    9.3787 F       1  UNL1       -0.1654
     30 F          62.5563   78.9867   11.1409 F       1  UNL1       -0.1654
     31 F          63.3732   81.7821   10.4207 F       1  UNL1       -0.1654
@<TRIPOS>BOND
     1     8     9    1
     2     9    10   ar
     3    10    11   ar
     4    11    12   ar
     5    12     1    1
     6     1     2   ar
     7     2     3   ar
     8     3     4   ar
     9     4    21    1
    10    21    22    1
    11    22    23    1
    12    23    24   ar
    13    24    25   ar
    14    25    26   ar
    15    26    28    1
    16    28    29    1
    17    28    30    1
    18    28    31    1
    19    26    27   ar
    20     4     5   ar
    21     5     6   ar
    22     6     7    2
    23    12    13   ar
    24    13    14   ar
    25    14    15   ar
    26    15    16   ar
    27    16    17   ar
    28    17    18    1
    29    18    19    1
    30    19    20    1
    31    17     9   ar
    32    20    18    1
    33    15    10   ar
    34     6     1   ar
    35    27    23   ar
@<TRIPOS>MOLECULE
*****
 31 35 0 0 0
SMALL
GASTEIGER

@<TRIPOS>ATOM
      1 N          62.5075   90.4904   10.7983 N.ar    1  UNL1       -0.2729
      2 C          62.1690   90.4182    9.3388 C.ar    1  UNL1        0.0860
      3 C          61.0080   89.5876    8.8784 C.ar    1  UNL1        0.0561
      4 C          60.1854   88.8291    9.8775 C.ar    1  UNL1        0.1453
      5 C          60.5239   88.9013   11.3370 C.ar    1  UNL1        0.0980
      6 C          61.6850   89.7320   11.7974 C.ar    1  UNL1        0.2679
      7 O          62.0234   89.8042   13.2569 O.2     1  UNL1       -0.2665
      8 C          65.9034   91.1143   15.5806 C.3     1  UNL1        0.0518
      9 C          66.1608   91.9811   14.3838 C.ar    1  UNL1        0.0574
     10 C          65.3960   91.9526   13.0937 C.ar    1  UNL1        0.0340
     11 C          64.2350   91.1219   12.6333 C.ar    1  UNL1        0.0203
     12 C          63.6686   91.3211   11.2587 C.ar    1  UNL1        0.0670
     13 C          64.2632   92.3509   10.3445 C.ar    1  UNL1        0.0192
     14 C          65.4243   93.1816   10.8049 C.ar    1  UNL1        0.0224
     15 C          65.9906   92.9824   12.1795 C.ar    1  UNL1        0.1021
     16 N          67.1229   93.6474   12.9045 N.ar    1  UNL1       -0.1697
     17 N          67.2281   93.0286   14.2669 N.ar    1  UNL1       -0.2569
     18 C          68.2254   93.3931   15.3263 C.3     1  UNL1        0.1049
     19 C          69.0327   94.4308   16.0485 C.3     1  UNL1        0.0263
     20 C          69.1456   92.9870   16.4391 C.3     1  UNL1        0.0263
     21 O          59.0244   87.9985    9.4170 O.3     1  UNL1       -0.4704
     22 C          59.2608   86.7827    8.5709 C.3     1  UNL1        0.2325
     23 C          60.5711   86.0570    8.6502 C.ar    1  UNL1        0.0281
     24 C          61.4390   85.6748    7.4881 C.ar    1  UNL1        0.0347
     25 S          62.6480   84.9677    8.0251 S.2     1  UNL1       -0.0829
     26 C          62.5272   84.9128    9.5193 C.ar    1  UNL1        0.1008
     27 C          61.2436   85.5860    9.9056 C.ar    1  UNL1        0.0102
     28 C          63.5163   84.2934   10.4617 C.3     1  UNL1        0.4241
     29 F          64.5054   83.6741   11.4041 F       1  UNL1       -0.1654
     30 F          63.9972   83.3913    9.3640 F       1  UNL1       -0.1654
     31 F          63.0354   85.1956   11.5594 F       1  UNL1       -0.1654
@<TRIPOS>BOND
     1     8     9    1
     2     9    10   ar
     3    10    11   ar
     4    11    12   ar
     5    12     1    1
     6     1     2   ar
     7     2     3   ar
     8     3     4   ar
     9     4    21    1
    10    21    22    1
    11    22    23    1
    12    23    24   ar
    13    24    25   ar
    14    25    26   ar
    15    26    28    1
    16    28    29    1
    17    28    30    1
    18    28    31    1
    19    26    27   ar
    20     4     5   ar
    21     5     6   ar
    22     6     7    2
    23    12    13   ar
    24    13    14   ar
    25    14    15   ar
    26    15    16   ar
    27    16    17   ar
    28    17    18    1
    29    18    19    1
    30    19    20    1
    31    17     9   ar
    32    20    18    1
    33    15    10   ar
    34     6     1   ar
    35    27    23   ar
@<TRIPOS>MOLECULE
*****
 31 35 0 0 0
SMALL
GASTEIGER

@<TRIPOS>ATOM
      1 N          63.8199   88.4035   13.4853 N.ar    1  UNL1       -0.2729
      2 C          64.6005   89.4070   14.2814 C.ar    1  UNL1        0.0860
      3 C          64.7145   90.8226   13.7986 C.ar    1  UNL1        0.0561
      4 C          64.0478   91.2347   12.5196 C.ar    1  UNL1        0.1453
      5 C          63.2672   90.2313   11.7235 C.ar    1  UNL1        0.0980
      6 C          63.1533   88.8157   12.2064 C.ar    1  UNL1        0.2679
      7 O          62.3727   87.8122   11.4103 O.2     1  UNL1       -0.2665
      8 C          62.6344   83.0503   11.3107 C.3     1  UNL1        0.0518
      9 C          62.9314   83.1951   12.7738 C.ar    1  UNL1        0.0574
     10 C          63.2513   84.4759   13.4860 C.ar    1  UNL1        0.0340
     11 C          63.3652   85.8914   13.0031 C.ar    1  UNL1        0.0203
     12 C          63.7060   86.9879   13.9682 C.ar    1  UNL1        0.0670
     13 C          63.9330   86.6689   15.4162 C.ar    1  UNL1        0.0192
     14 C          63.8191   85.2534   15.8991 C.ar    1  UNL1        0.0224
     15 C          63.4782   84.1569   14.9340 C.ar    1  UNL1        0.1021
     16 N          63.2987   82.6789   15.1167 N.ar    1  UNL1       -0.1697
     17 N          62.9607   82.0845   13.7816 N.ar    1  UNL1       -0.2569
     18 C          62.6981   80.6341   13.5032 C.3     1  UNL1        0.1049
     19 C          62.6232   79.4898   12.5363 C.3     1  UNL1        0.0263
     20 C          62.3184   79.2663   13.9879 C.3     1  UNL1        0.0263
     21 O          64.1617   92.6503   12.0368 O.3     1  UNL1       -0.4704
     22 C          65.5057   93.2182   11.6889 C.3     1  UNL1        0.2325
     23 C          66.7173   92.8137   12.4754 C.ar    1  UNL1        0.0281
     24 C          67.8945   92.0473   11.9493 C.ar    1  UNL1        0.0347
     25 S          68.8691   91.8645   13.0748 S.2     1  UNL1       -0.0829
     26 C          68.2942   92.5180   14.2965 C.ar    1  UNL1        0.1008
     27 C          66.9643   93.1046   13.9260 C.ar    1  UNL1        0.0102
     28 C          68.9364   92.5749   15.6509 C.3     1  UNL1        0.4241
     29 F          69.5786   92.6317   17.0053 F       1  UNL1       -0.1654
     30 F          69.7266   93.7769   15.2257 F       1  UNL1       -0.1654
     31 F          68.1462   91.3729   16.0761 F       1  UNL1       -0.1654
@<TRIPOS>BOND
     1     8     9    1
     2     9    10   ar
     3    10    11   ar
     4    11    12   ar
     5    12     1    1
     6     1     2   ar
     7     2     3   ar
     8     3     4   ar
     9     4    21    1
    10    21    22    1
    11    22    23    1
    12    23    24   ar
    13    24    25   ar
    14    25    26   ar
    15    26    28    1
    16    28    29    1
    17    28    30    1
    18    28    31    1
    19    26    27   ar
    20     4     5   ar
    21     5     6   ar
    22     6     7    2
    23    12    13   ar
    24    13    14   ar
    25    14    15   ar
    26    15    16   ar
    27    16    17   ar
    28    17    18    1
    29    18    19    1
    30    19    20    1
    31    17     9   ar
    32    20    18    1
    33    15    10   ar
    34     6     1   ar
    35    27    23   ar
