@<TRIPOS>MOLECULE
*****
 33 37 0 0 0
SMALL
GASTEIGER

@<TRIPOS>ATOM
      1 C          59.6314   92.2068    3.2679 C.ar    1  UNL1        0.0479
      2 C          60.8952   91.6471    3.8506 C.ar    1  UNL1        0.0145
      3 C          60.8476   90.8551    5.1236 C.ar    1  UNL1        0.0013
      4 C          59.5363   90.6228    5.8139 C.ar    1  UNL1        0.0001
      5 C          58.2725   91.1826    5.2311 C.ar    1  UNL1        0.0013
      6 C          58.3201   91.9746    3.9581 C.ar    1  UNL1        0.0145
      7 N          59.7741   94.5828   -0.5510 N.3     1  UNL1       -0.1560
      8 C          60.2638   95.1913    0.7295 C.3     1  UNL1        0.1168
      9 C          60.2162   94.3993    2.0025 C.3     1  UNL1        0.1099
     10 N          59.6790   92.9988    1.9948 N.pl3   1  UNL1       -0.3045
     11 C          59.1893   92.3904    0.7143 C.3     1  UNL1        0.1099
     12 C          59.2368   93.1824   -0.5587 C.3     1  UNL1        0.1168
     13 O          59.4552   94.1460   -2.6022 O.2     1  UNL1       -0.1573
     14 S          59.8216   95.3748   -1.8241 S.O2    1  UNL1        0.0422
     15 O          60.1880   96.6037   -1.0459 O.2     1  UNL1       -0.1573
     16 C          59.8691   96.1668   -3.0971 C.3     1  UNL1        0.1459
     17 C          59.1610   96.8493   -4.2295 C.3     1  UNL1        0.0270
     18 C          60.6597   96.8559   -4.1695 C.3     1  UNL1        0.0270
     19 C          59.4887   89.8309    7.0868 C.2     1  UNL1        0.0000
     20 C          60.7411   89.6166    7.8840 C.2     1  UNL1        0.0001
     21 C          60.6935   88.8246    9.1571 C.ar    1  UNL1        0.0022
     22 C          59.7920   89.2560   10.2755 C.ar    1  UNL1        0.0296
     23 C          59.7445   88.4640   11.5485 C.ar    1  UNL1        0.1401
     24 F          58.8429   88.8954   12.6670 F       1  UNL1       -0.2042
     25 C          60.5985   87.2406   11.7030 C.ar    1  UNL1        0.0296
     26 C          61.5001   86.8092   10.5845 C.ar    1  UNL1        0.0023
     27 C          61.5476   87.6012    9.3115 C.ar    1  UNL1        0.0001
     28 C          62.3541   85.5858   10.7390 C.ar    1  UNL1        0.0032
     29 C          62.9190   84.9074    9.5263 C.ar    1  UNL1        0.0207
     30 C          63.7731   83.6840    9.6808 C.ar    1  UNL1        0.0989
     31 N          64.0622   83.1390   11.0479 N.ar    1  UNL1       -0.2423
     32 C          63.4974   83.8173   12.2606 C.ar    1  UNL1        0.0989
     33 C          62.6433   85.0407   12.1062 C.ar    1  UNL1        0.0207
@<TRIPOS>BOND
     1    13    14    2
     2    14    15    2
     3    14    16    1
     4    16    17    1
     5    17    18    1
     6    14     7    1
     7     7     8    1
     8     8     9    1
     9     9    10    1
    10    10     1    1
    11     1     2   ar
    12     2     3   ar
    13     3     4   ar
    14     4    19    1
    15    19    20    2
    16    20    21    1
    17    21    22   ar
    18    22    23   ar
    19    23    24    1
    20    23    25   ar
    21    25    26   ar
    22    26    28    1
    23    28    29   ar
    24    29    30   ar
    25    30    31   ar
    26    31    32   ar
    27    32    33   ar
    28    26    27   ar
    29     4     5   ar
    30     5     6   ar
    31    10    11    1
    32    11    12    1
    33    18    16    1
    34    12     7    1
    35     6     1   ar
    36    27    21   ar
    37    33    28   ar
@<TRIPOS>MOLECULE
*****
 33 37 0 0 0
SMALL
GASTEIGER

@<TRIPOS>ATOM
      1 C          60.2760   93.0352    1.2628 C.ar    1  UNL1        0.0479
      2 C          61.6312   92.5863    1.7230 C.ar    1  UNL1        0.0145
      3 C          61.7899   91.9350    3.0650 C.ar    1  UNL1        0.0013
      4 C          60.5934   91.7326    3.9466 C.ar    1  UNL1        0.0001
      5 C          59.2381   92.1816    3.4863 C.ar    1  UNL1        0.0013
      6 C          59.0795   92.8328    2.1445 C.ar    1  UNL1        0.0145
      7 N          59.8001   94.9890   -2.7629 N.3     1  UNL1       -0.1560
      8 C          61.1665   94.6240   -2.2632 C.3     1  UNL1        0.1168
      9 C          61.3251   93.9728   -0.9213 C.3     1  UNL1        0.1099
     10 N          60.1173   93.6865   -0.0791 N.pl3   1  UNL1       -0.3045
     11 C          58.7509   94.0514   -0.5788 C.3     1  UNL1        0.1099
     12 C          58.5923   94.7026   -1.9207 C.3     1  UNL1        0.1168
     13 O          61.1317   95.7630   -4.2214 O.2     1  UNL1       -0.1573
     14 S          59.6414   95.6402   -4.1048 S.O2    1  UNL1        0.0422
     15 O          58.1510   95.5175   -3.9882 O.2     1  UNL1       -0.1573
     16 C          59.4827   96.2915   -5.4467 C.3     1  UNL1        0.1459
     17 C          60.0901   96.8551   -6.6970 C.3     1  UNL1        0.0270
     18 C          58.6005   96.8559   -6.5205 C.3     1  UNL1        0.0270
     19 C          60.7520   91.0814    5.2885 C.2     1  UNL1        0.0000
     20 C          59.6804   90.1717    5.8120 C.2     1  UNL1        0.0001
     21 C          59.8390   89.5204    7.1539 C.ar    1  UNL1        0.0022
     22 C          59.0408   88.2965    7.4926 C.ar    1  UNL1        0.0296
     23 C          59.1994   87.6452    8.8345 C.ar    1  UNL1        0.1401
     24 F          58.4011   86.4212    9.1732 F       1  UNL1       -0.2042
     25 C          60.1563   88.2179    9.8377 C.ar    1  UNL1        0.0296
     26 C          60.9546   89.4418    9.4990 C.ar    1  UNL1        0.0023
     27 C          60.7959   90.0931    8.1571 C.ar    1  UNL1        0.0001
     28 C          61.9114   90.0145   10.5022 C.ar    1  UNL1        0.0032
     29 C          62.9653   90.9874   10.0630 C.ar    1  UNL1        0.0207
     30 C          63.9222   91.5601   11.0662 C.ar    1  UNL1        0.0989
     31 N          63.8252   91.1599   12.5086 N.ar    1  UNL1       -0.2423
     32 C          62.7714   90.1870   12.9477 C.ar    1  UNL1        0.0989
     33 C          61.8145   89.6143   11.9445 C.ar    1  UNL1        0.0207
@<TRIPOS>BOND
     1    13    14    2
     2    14    15    2
     3    14    16    1
     4    16    17    1
     5    17    18    1
     6    14     7    1
     7     7     8    1
     8     8     9    1
     9     9    10    1
    10    10     1    1
    11     1     2   ar
    12     2     3   ar
    13     3     4   ar
    14     4    19    1
    15    19    20    2
    16    20    21    1
    17    21    22   ar
    18    22    23   ar
    19    23    24    1
    20    23    25   ar
    21    25    26   ar
    22    26    28    1
    23    28    29   ar
    24    29    30   ar
    25    30    31   ar
    26    31    32   ar
    27    32    33   ar
    28    26    27   ar
    29     4     5   ar
    30     5     6   ar
    31    10    11    1
    32    11    12    1
    33    18    16    1
    34    12     7    1
    35     6     1   ar
    36    27    21   ar
    37    33    28   ar
@<TRIPOS>MOLECULE
*****
 33 37 0 0 0
SMALL
GASTEIGER

@<TRIPOS>ATOM
      1 C          59.6083   92.6773    2.3117 C.ar    1  UNL1        0.0479
      2 C          61.0642   92.3684    2.4978 C.ar    1  UNL1        0.0145
      3 C          61.5317   91.6829    3.7475 C.ar    1  UNL1        0.0013
      4 C          60.5432   91.3063    4.8110 C.ar    1  UNL1        0.0001
      5 C          59.0872   91.6152    4.6248 C.ar    1  UNL1        0.0013
      6 C          58.6197   92.3007    3.3752 C.ar    1  UNL1        0.0145
      7 N          58.2058   94.7337   -1.4372 N.3     1  UNL1       -0.1560
      8 C          57.6635   93.3829   -1.0750 C.3     1  UNL1        0.1168
      9 C          58.1310   92.6974    0.1746 C.3     1  UNL1        0.1099
     10 N          59.1408   93.3628    1.0620 N.pl3   1  UNL1       -0.3045
     11 C          59.6831   94.7136    0.6999 C.3     1  UNL1        0.1099
     12 C          59.2156   95.3990   -0.5497 C.3     1  UNL1        0.1168
     13 O          59.1596   95.5454   -3.1493 O.2     1  UNL1       -0.1573
     14 S          57.7383   95.4192   -2.6869 S.O2    1  UNL1        0.0422
     15 O          56.3169   95.2930   -2.2244 O.2     1  UNL1       -0.1573
     16 C          57.2708   96.1046   -3.9365 C.3     1  UNL1        0.1459
     17 C          57.5209   96.5422   -5.3492 C.3     1  UNL1        0.0270
     18 C          56.2111   96.8544   -4.6881 C.3     1  UNL1        0.0270
     19 C          61.0106   90.6208    6.0606 C.2     1  UNL1        0.0000
     20 C          60.0296   89.8841    6.9236 C.2     1  UNL1        0.0001
     21 C          60.4971   89.1986    8.1733 C.ar    1  UNL1        0.0022
     22 C          60.1217   87.7692    8.4299 C.ar    1  UNL1        0.0296
     23 C          60.5891   87.0838    9.6795 C.ar    1  UNL1        0.1401
     24 F          60.2137   85.6543    9.9361 F       1  UNL1       -0.2042
     25 C          61.4319   87.8277   10.6726 C.ar    1  UNL1        0.0296
     26 C          61.8072   89.2571   10.4161 C.ar    1  UNL1        0.0023
     27 C          61.3398   89.9426    9.1664 C.ar    1  UNL1        0.0001
     28 C          62.6500   90.0011   11.4092 C.ar    1  UNL1        0.0032
     29 C          62.6119   89.6204   12.8595 C.ar    1  UNL1        0.0207
     30 C          63.4547   90.3643   13.8526 C.ar    1  UNL1        0.0989
     31 N          64.3356   91.4890   13.3954 N.ar    1  UNL1       -0.2423
     32 C          64.3736   91.8697   11.9451 C.ar    1  UNL1        0.0989
     33 C          63.5309   91.1258   10.9519 C.ar    1  UNL1        0.0207
@<TRIPOS>BOND
     1    13    14    2
     2    14    15    2
     3    14    16    1
     4    16    17    1
     5    17    18    1
     6    14     7    1
     7     7     8    1
     8     8     9    1
     9     9    10    1
    10    10     1    1
    11     1     2   ar
    12     2     3   ar
    13     3     4   ar
    14     4    19    1
    15    19    20    2
    16    20    21    1
    17    21    22   ar
    18    22    23   ar
    19    23    24    1
    20    23    25   ar
    21    25    26   ar
    22    26    28    1
    23    28    29   ar
    24    29    30   ar
    25    30    31   ar
    26    31    32   ar
    27    32    33   ar
    28    26    27   ar
    29     4     5   ar
    30     5     6   ar
    31    10    11    1
    32    11    12    1
    33    18    16    1
    34    12     7    1
    35     6     1   ar
    36    27    21   ar
    37    33    28   ar
@<TRIPOS>MOLECULE
*****
 33 37 0 0 0
SMALL
GASTEIGER

@<TRIPOS>ATOM
      1 C          60.1705   89.7676    6.7085 C.ar    1  UNL1        0.0479
      2 C          58.7082   89.9596    6.4353 C.ar    1  UNL1        0.0145
      3 C          58.2660   90.8164    5.2861 C.ar    1  UNL1        0.0013
      4 C          59.2862   91.4811    4.4102 C.ar    1  UNL1        0.0001
      5 C          60.7486   91.2891    4.6835 C.ar    1  UNL1        0.0013
      6 C          61.1907   90.4324    5.8326 C.ar    1  UNL1        0.0145
      7 N          61.4969   87.1975   10.1560 N.3     1  UNL1       -0.1560
      8 C          61.5932   88.6912   10.2536 C.3     1  UNL1        0.1168
      9 C          61.1510   89.5479    9.1044 C.3     1  UNL1        0.1099
     10 N          60.6126   88.9109    7.8577 N.pl3   1  UNL1       -0.3045
     11 C          60.5164   87.4172    7.7601 C.3     1  UNL1        0.1099
     12 C          60.9585   86.5605    8.9092 C.3     1  UNL1        0.1168
     13 O          62.4295   87.5611   12.0262 O.2     1  UNL1       -0.1573
     14 S          61.9391   86.3407   11.3051 S.O2    1  UNL1        0.0422
     15 O          61.4486   85.1203   10.5840 O.2     1  UNL1       -0.1573
     16 C          62.3812   85.4841   12.4543 C.3     1  UNL1        0.1459
     17 C          62.1376   84.3347   13.3868 C.3     1  UNL1        0.0270
     18 C          63.3907   85.1496   13.5121 C.3     1  UNL1        0.0270
     19 C          58.8442   92.3378    3.2611 C.2     1  UNL1        0.0000
     20 C          59.4738   92.1646    1.9108 C.2     1  UNL1        0.0001
     21 C          59.0318   93.0214    0.7615 C.ar    1  UNL1        0.0022
     22 C          59.2165   94.5088    0.8204 C.ar    1  UNL1        0.0296
     23 C          58.7744   95.3654   -0.3288 C.ar    1  UNL1        0.1401
     24 F          58.9591   96.8529   -0.2700 F       1  UNL1       -0.2042
     25 C          58.1476   94.7347   -1.5368 C.ar    1  UNL1        0.0296
     26 C          57.9629   93.2473   -1.5957 C.ar    1  UNL1        0.0023
     27 C          58.4050   92.3906   -0.4465 C.ar    1  UNL1        0.0001
     28 C          57.3362   92.6166   -2.8037 C.ar    1  UNL1        0.0032
     29 C          56.3560   91.4931   -2.6398 C.ar    1  UNL1        0.0207
     30 C          55.7292   90.8624   -3.8479 C.ar    1  UNL1        0.0989
     31 N          56.0826   91.3551   -5.2198 N.ar    1  UNL1       -0.2423
     32 C          57.0629   92.4786   -5.3837 C.ar    1  UNL1        0.0989
     33 C          57.6896   93.1093   -4.1756 C.ar    1  UNL1        0.0207
@<TRIPOS>BOND
     1    13    14    2
     2    14    15    2
     3    14    16    1
     4    16    17    1
     5    17    18    1
     6    14     7    1
     7     7     8    1
     8     8     9    1
     9     9    10    1
    10    10     1    1
    11     1     2   ar
    12     2     3   ar
    13     3     4   ar
    14     4    19    1
    15    19    20    2
    16    20    21    1
    17    21    22   ar
    18    22    23   ar
    19    23    24    1
    20    23    25   ar
    21    25    26   ar
    22    26    28    1
    23    28    29   ar
    24    29    30   ar
    25    30    31   ar
    26    31    32   ar
    27    32    33   ar
    28    26    27   ar
    29     4     5   ar
    30     5     6   ar
    31    10    11    1
    32    11    12    1
    33    18    16    1
    34    12     7    1
    35     6     1   ar
    36    27    21   ar
    37    33    28   ar
@<TRIPOS>MOLECULE
*****
 33 37 0 0 0
SMALL
GASTEIGER

@<TRIPOS>ATOM
      1 C          59.5768   92.2531    3.1877 C.ar    1  UNL1        0.0479
      2 C          58.4081   91.9964    4.0923 C.ar    1  UNL1        0.0145
      3 C          58.6049   91.2497    5.3783 C.ar    1  UNL1        0.0013
      4 C          59.9703   90.7596    5.7596 C.ar    1  UNL1        0.0001
      5 C          61.1390   91.0163    4.8549 C.ar    1  UNL1        0.0013
      6 C          60.9422   91.7630    3.5690 C.ar    1  UNL1        0.0145
      7 N          58.9865   94.4934   -0.6701 N.3     1  UNL1       -0.1560
      8 C          59.7214   95.1389    0.4671 C.3     1  UNL1        0.1168
      9 C          59.9181   94.3921    1.7530 C.3     1  UNL1        0.1099
     10 N          59.3800   92.9998    1.9017 N.pl3   1  UNL1       -0.3045
     11 C          58.6452   92.3544    0.7644 C.3     1  UNL1        0.1099
     12 C          58.4484   93.1011   -0.5215 C.3     1  UNL1        0.1168
     13 O          58.8434   96.5400   -1.2095 O.2     1  UNL1       -0.1573
     14 S          58.7898   95.2401   -1.9561 S.O2    1  UNL1        0.0422
     15 O          58.7362   93.9403   -2.7028 O.2     1  UNL1       -0.1573
     16 C          58.5930   95.9869   -3.2420 C.3     1  UNL1        0.1459
     17 C          59.1039   96.4193   -4.5844 C.3     1  UNL1        0.0270
     18 C          57.7413   96.8480   -4.1269 C.3     1  UNL1        0.0270
     19 C          60.1671   90.0128    7.0455 C.2     1  UNL1        0.0000
     20 C          61.3512   90.3159    7.9151 C.2     1  UNL1        0.0001
     21 C          61.5480   89.5692    9.2010 C.ar    1  UNL1        0.0022
     22 C          60.9846   88.1882    9.3602 C.ar    1  UNL1        0.0296
     23 C          61.1814   87.4415   10.6462 C.ar    1  UNL1        0.1401
     24 F          60.6180   86.0605   10.8054 F       1  UNL1       -0.2042
     25 C          61.9417   88.0758   11.7729 C.ar    1  UNL1        0.0296
     26 C          62.5052   89.4568   11.6137 C.ar    1  UNL1        0.0023
     27 C          62.3083   90.2035   10.3278 C.ar    1  UNL1        0.0001
     28 C          63.2655   90.0911   12.7405 C.ar    1  UNL1        0.0032
     29 C          64.2894   91.1488   12.4526 C.ar    1  UNL1        0.0207
     30 C          65.0497   91.7831   13.5794 C.ar    1  UNL1        0.0989
     31 N          64.7862   91.3597   14.9940 N.ar    1  UNL1       -0.2423
     32 C          63.7623   90.3021   15.2819 C.ar    1  UNL1        0.0989
     33 C          63.0019   89.6678   14.1551 C.ar    1  UNL1        0.0207
@<TRIPOS>BOND
     1    13    14    2
     2    14    15    2
     3    14    16    1
     4    16    17    1
     5    17    18    1
     6    14     7    1
     7     7     8    1
     8     8     9    1
     9     9    10    1
    10    10     1    1
    11     1     2   ar
    12     2     3   ar
    13     3     4   ar
    14     4    19    1
    15    19    20    2
    16    20    21    1
    17    21    22   ar
    18    22    23   ar
    19    23    24    1
    20    23    25   ar
    21    25    26   ar
    22    26    28    1
    23    28    29   ar
    24    29    30   ar
    25    30    31   ar
    26    31    32   ar
    27    32    33   ar
    28    26    27   ar
    29     4     5   ar
    30     5     6   ar
    31    10    11    1
    32    11    12    1
    33    18    16    1
    34    12     7    1
    35     6     1   ar
    36    27    21   ar
    37    33    28   ar
@<TRIPOS>MOLECULE
*****
 33 37 0 0 0
SMALL
GASTEIGER

@<TRIPOS>ATOM
      1 C          60.3907   89.7597    6.9287 C.ar    1  UNL1        0.0479
      2 C          61.2145   90.2683    8.0745 C.ar    1  UNL1        0.0145
      3 C          61.4548   89.3959    9.2709 C.ar    1  UNL1        0.0013
      4 C          60.8712   88.0150    9.3214 C.ar    1  UNL1        0.0001
      5 C          60.0474   87.5064    8.1756 C.ar    1  UNL1        0.0013
      6 C          59.8072   88.3788    6.9793 C.ar    1  UNL1        0.0145
      7 N          59.6698   92.3768    3.3397 N.3     1  UNL1       -0.1560
      8 C          58.5345   92.0340    4.2581 C.3     1  UNL1        0.1168
      9 C          58.7748   91.1617    5.4544 C.3     1  UNL1        0.1099
     10 N          60.1504   90.6321    5.7323 N.pl3   1  UNL1       -0.3045
     11 C          61.2857   90.9749    4.8139 C.3     1  UNL1        0.1099
     12 C          61.0454   91.8472    3.6176 C.3     1  UNL1        0.1168
     13 O          59.8916   94.4448    2.9223 O.2     1  UNL1       -0.1573
     14 S          59.4295   93.2492    2.1433 S.O2    1  UNL1        0.0422
     15 O          58.9673   92.0536    1.3643 O.2     1  UNL1       -0.1573
     16 C          59.1892   94.1215    0.9470 C.3     1  UNL1        0.1459
     17 C          58.5202   94.3588   -0.3744 C.3     1  UNL1        0.0270
     18 C          59.4421   95.3953    0.1963 C.3     1  UNL1        0.0270
     19 C          61.1115   87.1426   10.5178 C.2     1  UNL1        0.0000
     20 C          62.5124   86.8785   10.9841 C.2     1  UNL1        0.0001
     21 C          62.7528   86.0061   12.1805 C.ar    1  UNL1        0.0022
     22 C          63.2696   86.6060   13.4545 C.ar    1  UNL1        0.0296
     23 C          63.5099   85.7336   14.6508 C.ar    1  UNL1        0.1401
     24 F          64.0268   86.3334   15.9248 F       1  UNL1       -0.2042
     25 C          63.2333   84.2613   14.5731 C.ar    1  UNL1        0.0296
     26 C          62.7165   83.6615   13.2991 C.ar    1  UNL1        0.0023
     27 C          62.4762   84.5339   12.1028 C.ar    1  UNL1        0.0001
     28 C          62.4399   82.1893   13.2214 C.ar    1  UNL1        0.0032
     29 C          63.0221   81.3747   12.1045 C.ar    1  UNL1        0.0207
     30 C          62.7455   79.9024   12.0268 C.ar    1  UNL1        0.0989
     31 N          61.8868   79.2448   13.0661 N.ar    1  UNL1       -0.2423
     32 C          61.3047   80.0593   14.1830 C.ar    1  UNL1        0.0989
     33 C          61.5812   81.5316   14.2607 C.ar    1  UNL1        0.0207
@<TRIPOS>BOND
     1    13    14    2
     2    14    15    2
     3    14    16    1
     4    16    17    1
     5    17    18    1
     6    14     7    1
     7     7     8    1
     8     8     9    1
     9     9    10    1
    10    10     1    1
    11     1     2   ar
    12     2     3   ar
    13     3     4   ar
    14     4    19    1
    15    19    20    2
    16    20    21    1
    17    21    22   ar
    18    22    23   ar
    19    23    24    1
    20    23    25   ar
    21    25    26   ar
    22    26    28    1
    23    28    29   ar
    24    29    30   ar
    25    30    31   ar
    26    31    32   ar
    27    32    33   ar
    28    26    27   ar
    29     4     5   ar
    30     5     6   ar
    31    10    11    1
    32    11    12    1
    33    18    16    1
    34    12     7    1
    35     6     1   ar
    36    27    21   ar
    37    33    28   ar
