@<TRIPOS>MOLECULE
*****
 24 26 0 0 0
SMALL
GASTEIGER

@<TRIPOS>ATOM
      1 C          63.4052   90.2021   14.4755 C.3     1  UNL1        0.0291
      2 C          64.2836   91.0778   13.6318 C.3     1  UNL1        0.1083
      3 C          64.8999   91.7017   12.4150 C.3     1  UNL1        0.0425
      4 C          65.9658   92.7462   12.5659 C.3     1  UNL1        0.0819
      5 S          66.4154   93.1668   13.9337 S.3     1  UNL1       -0.0770
      6 C          65.7991   92.5429   15.1506 C.2     1  UNL1        0.1484
      7 N          66.2487   92.9635   16.5185 N.pl3   1  UNL1       -0.3380
      8 N          64.7332   91.4984   14.9997 N.2     1  UNL1       -0.2508
      9 H          66.9483   93.6491   16.6175 H       1  UNL1        0.1442
     10 H          65.8442   92.5540   17.3172 H       1  UNL1        0.1442
     11 C          63.5289   90.3530   12.5570 C.ar    1  UNL1        0.0255
     12 C          62.8406   91.1268   11.4719 C.ar    1  UNL1        0.0021
     13 C          62.0859   90.4021   10.3971 C.ar    1  UNL1        0.0295
     14 C          62.0196   88.9036   10.4074 C.ar    1  UNL1        0.1424
     15 F          61.2649   88.1788    9.3326 F       1  UNL1       -0.2041
     16 C          62.7080   88.1298   11.4925 C.ar    1  UNL1        0.0590
     17 C          63.4626   88.8545   12.5673 C.ar    1  UNL1        0.1401
     18 F          64.1510   88.0808   13.6524 F       1  UNL1       -0.2044
     19 C          66.5821   93.3701   11.3489 C.ar    1  UNL1        0.0263
     20 C          67.3391   92.5202   10.3720 C.ar    1  UNL1        0.0987
     21 N          67.9554   93.1441    9.1550 N.ar    1  UNL1       -0.2227
     22 C          67.8147   94.6181    8.9151 C.ar    1  UNL1        0.1989
     23 N          67.0577   95.4681    9.8920 N.ar    1  UNL1       -0.2227
     24 C          66.4414   94.8442   11.1090 C.ar    1  UNL1        0.0987
@<TRIPOS>BOND
     1     2     1    1
     2     2    11    1
     3    11    12   ar
     4    12    13   ar
     5    13    14   ar
     6    14    15    1
     7    14    16   ar
     8    16    17   ar
     9    17    18    1
    10     2     3    1
    11     3     4    1
    12     4    19    1
    13    19    20   ar
    14    20    21   ar
    15    21    22   ar
    16    22    23   ar
    17    23    24   ar
    18     4     5    1
    19     5     6    1
    20     6     7    1
    21     6     8    2
    22     8     2    1
    23    17    11   ar
    24    24    19   ar
    25     7     9    1
    26     7    10    1
@<TRIPOS>MOLECULE
*****
 24 26 0 0 0
SMALL
GASTEIGER

@<TRIPOS>ATOM
      1 C          64.2780   85.4989   14.5542 C.3     1  UNL1        0.0291
      2 C          63.5059   85.8541   13.3181 C.3     1  UNL1        0.1083
      3 C          62.6764   85.6916   12.0791 C.3     1  UNL1        0.0425
      4 C          62.2807   86.8965   11.2780 C.3     1  UNL1        0.0819
      5 S          62.7146   88.2639   11.7161 S.3     1  UNL1       -0.0770
      6 C          63.5442   88.4265   12.9552 C.2     1  UNL1        0.1484
      7 N          63.9781   89.7939   13.3932 N.pl3   1  UNL1       -0.3380
      8 N          63.9399   87.2216   13.7562 N.2     1  UNL1       -0.2508
      9 H          63.7185   90.5847   12.8675 H       1  UNL1        0.1442
     10 H          64.5226   89.9005   14.2065 H       1  UNL1        0.1442
     11 C          63.3401   84.3633   13.3094 C.ar    1  UNL1        0.0255
     12 C          64.1417   83.5251   12.3581 C.ar    1  UNL1        0.0021
     13 C          63.9759   82.0344   12.3494 C.ar    1  UNL1        0.0295
     14 C          63.0085   81.3818   13.2919 C.ar    1  UNL1        0.1424
     15 F          62.8427   79.8910   13.2831 F       1  UNL1       -0.2041
     16 C          62.2069   82.2200   14.2431 C.ar    1  UNL1        0.0590
     17 C          62.3727   83.7107   14.2519 C.ar    1  UNL1        0.1401
     18 F          61.5712   84.5490   15.2032 F       1  UNL1       -0.2044
     19 C          61.4511   86.7339   10.0389 C.ar    1  UNL1        0.0263
     20 C          61.9652   85.9118    8.8946 C.ar    1  UNL1        0.0987
     21 N          61.1356   85.7492    7.6555 N.ar    1  UNL1       -0.2227
     22 C          59.7918   86.4089    7.5608 C.ar    1  UNL1        0.1989
     23 N          59.2776   87.2311    8.7051 N.ar    1  UNL1       -0.2227
     24 C          60.1072   87.3937    9.9442 C.ar    1  UNL1        0.0987
@<TRIPOS>BOND
     1     2     1    1
     2     2    11    1
     3    11    12   ar
     4    12    13   ar
     5    13    14   ar
     6    14    15    1
     7    14    16   ar
     8    16    17   ar
     9    17    18    1
    10     2     3    1
    11     3     4    1
    12     4    19    1
    13    19    20   ar
    14    20    21   ar
    15    21    22   ar
    16    22    23   ar
    17    23    24   ar
    18     4     5    1
    19     5     6    1
    20     6     7    1
    21     6     8    2
    22     8     2    1
    23    17    11   ar
    24    24    19   ar
    25     7     9    1
    26     7    10    1
@<TRIPOS>MOLECULE
*****
 24 26 0 0 0
SMALL
GASTEIGER

@<TRIPOS>ATOM
      1 C          62.5285   88.4541   11.2300 C.3     1  UNL1        0.0291
      2 C          62.6131   87.0435   11.7332 C.3     1  UNL1        0.1083
      3 C          62.4158   85.5583   11.8046 C.3     1  UNL1        0.0425
      4 C          63.0005   84.7780   12.9444 C.3     1  UNL1        0.0819
      5 S          63.7825   85.4830   14.0128 S.3     1  UNL1       -0.0770
      6 C          63.9798   86.9682   13.9414 C.2     1  UNL1        0.1484
      7 N          64.7618   87.6732   15.0099 N.pl3   1  UNL1       -0.3380
      8 N          63.3951   87.7485   12.8016 N.2     1  UNL1       -0.2508
      9 H          65.1456   87.1611   15.7580 H       1  UNL1        0.1442
     10 H          64.8912   88.6480   14.9630 H       1  UNL1        0.1442
     11 C          61.8017   86.8284   10.4899 C.ar    1  UNL1        0.0255
     12 C          62.3973   86.0989    9.3225 C.ar    1  UNL1        0.0021
     13 C          61.5860   85.8839    8.0793 C.ar    1  UNL1        0.0295
     14 C          60.1790   86.3983    8.0037 C.ar    1  UNL1        0.1424
     15 F          59.3676   86.1833    6.7605 F       1  UNL1       -0.2041
     16 C          59.5834   87.1278    9.1711 C.ar    1  UNL1        0.0590
     17 C          60.3947   87.3429   10.4143 C.ar    1  UNL1        0.1401
     18 F          59.7991   88.0724   11.5818 F       1  UNL1       -0.2044
     19 C          62.8032   83.2927   13.0158 C.ar    1  UNL1        0.0263
     20 C          63.0113   82.4488   11.7934 C.ar    1  UNL1        0.0987
     21 N          62.8140   80.9635   11.8648 N.ar    1  UNL1       -0.2227
     22 C          62.4087   80.3222   13.1587 C.ar    1  UNL1        0.1989
     23 N          62.2006   81.1661   14.3813 N.ar    1  UNL1       -0.2227
     24 C          62.3978   82.6514   14.3099 C.ar    1  UNL1        0.0987
@<TRIPOS>BOND
     1     2     1    1
     2     2    11    1
     3    11    12   ar
     4    12    13   ar
     5    13    14   ar
     6    14    15    1
     7    14    16   ar
     8    16    17   ar
     9    17    18    1
    10     2     3    1
    11     3     4    1
    12     4    19    1
    13    19    20   ar
    14    20    21   ar
    15    21    22   ar
    16    22    23   ar
    17    23    24   ar
    18     4     5    1
    19     5     6    1
    20     6     7    1
    21     6     8    2
    22     8     2    1
    23    17    11   ar
    24    24    19   ar
    25     7     9    1
    26     7    10    1
@<TRIPOS>MOLECULE
*****
 24 26 0 0 0
SMALL
GASTEIGER

@<TRIPOS>ATOM
      1 C          64.4943   83.5343   14.2764 C.3     1  UNL1        0.0291
      2 C          63.7642   84.3499   13.2507 C.3     1  UNL1        0.1083
      3 C          62.9694   85.4680   12.6442 C.3     1  UNL1        0.0425
      4 C          62.6146   85.4316   11.1872 C.3     1  UNL1        0.0819
      5 S          63.0546   84.2769   10.3368 S.3     1  UNL1       -0.0770
      6 C          63.8494   83.1588   10.9433 C.2     1  UNL1        0.1484
      7 N          64.2895   82.0041   10.0929 N.pl3   1  UNL1       -0.3380
      8 N          64.2042   83.1952   12.4003 N.2     1  UNL1       -0.2508
      9 H          64.0566   81.9802    9.1367 H       1  UNL1        0.1442
     10 H          64.8111   81.2702   10.4910 H       1  UNL1        0.1442
     11 C          63.5777   85.2213   14.4574 C.ar    1  UNL1        0.0255
     12 C          64.2390   86.5661   14.5207 C.ar    1  UNL1        0.0021
     13 C          64.0525   87.4375   15.7273 C.ar    1  UNL1        0.0295
     14 C          63.2047   86.9640   16.8706 C.ar    1  UNL1        0.1424
     15 F          63.0182   87.8354   18.0773 F       1  UNL1       -0.2041
     16 C          62.5435   85.6191   16.8073 C.ar    1  UNL1        0.0590
     17 C          62.7300   84.7478   15.6007 C.ar    1  UNL1        0.1401
     18 F          62.0687   83.4028   15.5373 F       1  UNL1       -0.2044
     19 C          61.8197   86.5498   10.5807 C.ar    1  UNL1        0.0263
     20 C          60.8482   86.2651    9.4740 C.ar    1  UNL1        0.0987
     21 N          60.0534   87.3833    8.8674 N.ar    1  UNL1       -0.2227
     22 C          60.2302   88.7863    9.3677 C.ar    1  UNL1        0.1989
     23 N          61.2017   89.0711   10.4745 N.ar    1  UNL1       -0.2227
     24 C          61.9966   87.9529   11.0810 C.ar    1  UNL1        0.0987
@<TRIPOS>BOND
     1     2     1    1
     2     2    11    1
     3    11    12   ar
     4    12    13   ar
     5    13    14   ar
     6    14    15    1
     7    14    16   ar
     8    16    17   ar
     9    17    18    1
    10     2     3    1
    11     3     4    1
    12     4    19    1
    13    19    20   ar
    14    20    21   ar
    15    21    22   ar
    16    22    23   ar
    17    23    24   ar
    18     4     5    1
    19     5     6    1
    20     6     7    1
    21     6     8    2
    22     8     2    1
    23    17    11   ar
    24    24    19   ar
    25     7     9    1
    26     7    10    1
@<TRIPOS>MOLECULE
*****
 24 26 0 0 0
SMALL
GASTEIGER

@<TRIPOS>ATOM
      1 C          65.0300   85.2648   15.2109 C.3     1  UNL1        0.0291
      2 C          64.1477   85.4882   14.0185 C.3     1  UNL1        0.1083
      3 C          63.1893   86.1600   13.0804 C.3     1  UNL1        0.0425
      4 C          62.7564   85.4632   11.8246 C.3     1  UNL1        0.0819
      5 S          63.2820   84.0947   11.5069 S.3     1  UNL1       -0.0770
      6 C          64.2403   83.4229   12.4450 C.2     1  UNL1        0.1484
      7 N          64.7659   82.0543   12.1274 N.pl3   1  UNL1       -0.3380
      8 N          64.6732   84.1196   13.7009 N.2     1  UNL1       -0.2508
      9 H          64.4818   81.5970   11.3031 H       1  UNL1        0.1442
     10 H          65.3949   81.6134   12.7431 H       1  UNL1        0.1442
     11 C          63.9286   86.7792   14.7503 C.ar    1  UNL1        0.0255
     12 C          64.3106   88.0797   14.1079 C.ar    1  UNL1        0.0021
     13 C          64.0915   89.3705   14.8397 C.ar    1  UNL1        0.0295
     14 C          63.4903   89.3609   16.2139 C.ar    1  UNL1        0.1424
     15 F          63.2712   90.6519   16.9457 F       1  UNL1       -0.2041
     16 C          63.1083   88.0605   16.8564 C.ar    1  UNL1        0.0590
     17 C          63.3274   86.7696   16.1246 C.ar    1  UNL1        0.1401
     18 F          62.9453   85.4690   16.7670 F       1  UNL1       -0.2044
     19 C          61.7980   86.1351   10.8864 C.ar    1  UNL1        0.0263
     20 C          61.7476   85.7245    9.4446 C.ar    1  UNL1        0.0987
     21 N          60.7891   86.3963    8.5065 N.ar    1  UNL1       -0.2227
     22 C          59.8811   87.4787    9.0102 C.ar    1  UNL1        0.1989
     23 N          59.9315   87.8894   10.4520 N.ar    1  UNL1       -0.2227
     24 C          60.8899   87.2176   11.3902 C.ar    1  UNL1        0.0987
@<TRIPOS>BOND
     1     2     1    1
     2     2    11    1
     3    11    12   ar
     4    12    13   ar
     5    13    14   ar
     6    14    15    1
     7    14    16   ar
     8    16    17   ar
     9    17    18    1
    10     2     3    1
    11     3     4    1
    12     4    19    1
    13    19    20   ar
    14    20    21   ar
    15    21    22   ar
    16    22    23   ar
    17    23    24   ar
    18     4     5    1
    19     5     6    1
    20     6     7    1
    21     6     8    2
    22     8     2    1
    23    17    11   ar
    24    24    19   ar
    25     7     9    1
    26     7    10    1
@<TRIPOS>MOLECULE
*****
 24 26 0 0 0
SMALL
GASTEIGER

@<TRIPOS>ATOM
      1 C          62.6775   87.7328   11.8839 C.3     1  UNL1        0.0291
      2 C          62.7865   86.2382   11.9486 C.3     1  UNL1        0.1083
      3 C          62.6018   84.7944   11.5861 C.3     1  UNL1        0.0425
      4 C          63.2249   83.7233   12.4313 C.3     1  UNL1        0.0819
      5 S          64.0328   84.0959   13.6390 S.3     1  UNL1       -0.0770
      6 C          64.2175   85.5396   14.0015 C.2     1  UNL1        0.1484
      7 N          65.0254   85.9123   15.2092 N.pl3   1  UNL1       -0.3380
      8 N          63.5944   86.6108   13.1564 N.2     1  UNL1       -0.2508
      9 H          65.4344   85.2092   15.7640 H       1  UNL1        0.1442
     10 H          65.1466   86.8599   15.4472 H       1  UNL1        0.1442
     11 C          61.9407   86.3847   10.7184 C.ar    1  UNL1        0.0255
     12 C          60.6668   87.1746   10.7738 C.ar    1  UNL1        0.0021
     13 C          59.8212   87.3211    9.5436 C.ar    1  UNL1        0.0295
     14 C          60.2494   86.6776    8.2581 C.ar    1  UNL1        0.1424
     15 F          59.4037   86.8241    7.0279 F       1  UNL1       -0.2041
     16 C          61.5233   85.8877    8.2027 C.ar    1  UNL1        0.0590
     17 C          62.3690   85.7412    9.4329 C.ar    1  UNL1        0.1401
     18 F          63.6430   84.9512    9.3776 F       1  UNL1       -0.2044
     19 C          63.0401   82.2795   12.0687 C.ar    1  UNL1        0.0263
     20 C          62.5876   81.2972   13.1080 C.ar    1  UNL1        0.0987
     21 N          62.4028   79.8534   12.7454 N.ar    1  UNL1       -0.2227
     22 C          62.6707   79.3921   11.3435 C.ar    1  UNL1        0.1989
     23 N          63.1233   80.3743   10.3042 N.ar    1  UNL1       -0.2227
     24 C          63.3080   81.8181   10.6667 C.ar    1  UNL1        0.0987
@<TRIPOS>BOND
     1     2     1    1
     2     2    11    1
     3    11    12   ar
     4    12    13   ar
     5    13    14   ar
     6    14    15    1
     7    14    16   ar
     8    16    17   ar
     9    17    18    1
    10     2     3    1
    11     3     4    1
    12     4    19    1
    13    19    20   ar
    14    20    21   ar
    15    21    22   ar
    16    22    23   ar
    17    23    24   ar
    18     4     5    1
    19     5     6    1
    20     6     7    1
    21     6     8    2
    22     8     2    1
    23    17    11   ar
    24    24    19   ar
    25     7     9    1
    26     7    10    1
@<TRIPOS>MOLECULE
*****
 24 26 0 0 0
SMALL
GASTEIGER

@<TRIPOS>ATOM
      1 C          62.7590   83.2454   11.6443 C.3     1  UNL1        0.0291
      2 C          63.0701   84.6028   12.2018 C.3     1  UNL1        0.1083
      3 C          63.1999   86.0945   12.2898 C.3     1  UNL1        0.0425
      4 C          63.7435   86.7278   13.5361 C.3     1  UNL1        0.0819
      5 S          64.1573   85.8693   14.6945 S.3     1  UNL1       -0.0770
      6 C          64.0275   84.3776   14.6066 C.2     1  UNL1        0.1484
      7 N          64.4412   83.5191   15.7650 N.pl3   1  UNL1       -0.3380
      8 N          63.4839   83.7443   13.3602 N.2     1  UNL1       -0.2508
      9 H          64.7980   83.9348   16.5830 H       1  UNL1        0.1442
     10 H          64.3560   82.5400   15.7072 H       1  UNL1        0.1442
     11 C          62.5483   84.9898   10.8497 C.ar    1  UNL1        0.0255
     12 C          61.3158   85.8371   10.7359 C.ar    1  UNL1        0.0021
     13 C          60.7940   86.2240    9.3839 C.ar    1  UNL1        0.0295
     14 C          61.5048   85.7638    8.1457 C.ar    1  UNL1        0.1424
     15 F          60.9830   86.1508    6.7937 F       1  UNL1       -0.2041
     16 C          62.7373   84.9165    8.2596 C.ar    1  UNL1        0.0590
     17 C          63.2590   84.5295    9.6116 C.ar    1  UNL1        0.1401
     18 F          64.4916   83.6822    9.7255 F       1  UNL1       -0.2044
     19 C          63.8734   88.2197   13.6240 C.ar    1  UNL1        0.0263
     20 C          63.3618   89.0840   12.5100 C.ar    1  UNL1        0.0987
     21 N          63.4917   90.5758   12.5980 N.ar    1  UNL1       -0.2227
     22 C          64.1331   91.2032   13.8000 C.ar    1  UNL1        0.1989
     23 N          64.6447   90.3389   14.9141 N.ar    1  UNL1       -0.2227
     24 C          64.5149   88.8470   14.8262 C.ar    1  UNL1        0.0987
@<TRIPOS>BOND
     1     2     1    1
     2     2    11    1
     3    11    12   ar
     4    12    13   ar
     5    13    14   ar
     6    14    15    1
     7    14    16   ar
     8    16    17   ar
     9    17    18    1
    10     2     3    1
    11     3     4    1
    12     4    19    1
    13    19    20   ar
    14    20    21   ar
    15    21    22   ar
    16    22    23   ar
    17    23    24   ar
    18     4     5    1
    19     5     6    1
    20     6     7    1
    21     6     8    2
    22     8     2    1
    23    17    11   ar
    24    24    19   ar
    25     7     9    1
    26     7    10    1
@<TRIPOS>MOLECULE
*****
 24 26 0 0 0
SMALL
GASTEIGER

@<TRIPOS>ATOM
      1 C          62.1253   90.1140   10.0421 C.3     1  UNL1        0.0291
      2 C          62.5628   89.1191   11.0758 C.3     1  UNL1        0.1083
      3 C          62.7474   87.8083   11.7814 C.3     1  UNL1        0.0425
      4 C          63.5084   87.7524   13.0728 C.3     1  UNL1        0.0819
      5 S          64.0848   89.0072   13.6587 S.3     1  UNL1       -0.0770
      6 C          63.9002   90.3180   12.9531 C.2     1  UNL1        0.1484
      7 N          64.4765   91.5728   13.5390 N.pl3   1  UNL1       -0.3380
      8 N          63.1392   90.3739   11.6617 N.2     1  UNL1       -0.2508
      9 H          64.9760   91.5361   14.3866 H       1  UNL1        0.1442
     10 H          64.3554   92.4331   13.0759 H       1  UNL1        0.1442
     11 C          61.8345   88.2098   10.1309 C.ar    1  UNL1        0.0255
     12 C          62.5718   87.1032    9.4368 C.ar    1  UNL1        0.0021
     13 C          61.8435   86.1940    8.4919 C.ar    1  UNL1        0.0295
     14 C          60.3778   86.3913    8.2412 C.ar    1  UNL1        0.1424
     15 F          59.6495   85.4821    7.2963 F       1  UNL1       -0.2041
     16 C          59.6405   87.4979    8.9353 C.ar    1  UNL1        0.0590
     17 C          60.3688   88.4071    9.8802 C.ar    1  UNL1        0.1401
     18 F          59.6315   89.5137   10.5744 F       1  UNL1       -0.2044
     19 C          63.6930   86.4416   13.7784 C.ar    1  UNL1        0.0263
     20 C          64.1440   86.4167   15.2086 C.ar    1  UNL1        0.0987
     21 N          64.3285   85.1058   15.9142 N.ar    1  UNL1       -0.2227
     22 C          64.0621   83.8200   15.1893 C.ar    1  UNL1        0.1989
     23 N          63.6111   83.8448   13.7589 N.ar    1  UNL1       -0.2227
     24 C          63.4265   85.1556   13.0534 C.ar    1  UNL1        0.0987
@<TRIPOS>BOND
     1     2     1    1
     2     2    11    1
     3    11    12   ar
     4    12    13   ar
     5    13    14   ar
     6    14    15    1
     7    14    16   ar
     8    16    17   ar
     9    17    18    1
    10     2     3    1
    11     3     4    1
    12     4    19    1
    13    19    20   ar
    14    20    21   ar
    15    21    22   ar
    16    22    23   ar
    17    23    24   ar
    18     4     5    1
    19     5     6    1
    20     6     7    1
    21     6     8    2
    22     8     2    1
    23    17    11   ar
    24    24    19   ar
    25     7     9    1
    26     7    10    1
@<TRIPOS>MOLECULE
*****
 24 26 0 0 0
SMALL
GASTEIGER

@<TRIPOS>ATOM
      1 C          62.4387   85.7432    8.5551 C.3     1  UNL1        0.0291
      2 C          62.6302   85.5598   10.0315 C.3     1  UNL1        0.1083
      3 C          62.5745   85.8349   11.5050 C.3     1  UNL1        0.0425
      4 C          63.1641   84.8534   12.4740 C.3     1  UNL1        0.0819
      5 S          63.8094   83.5968   11.9696 S.3     1  UNL1       -0.0770
      6 C          63.8652   83.3217   10.4961 C.2     1  UNL1        0.1484
      7 N          64.5106   82.0651    9.9916 N.pl3   1  UNL1       -0.3380
      8 N          63.2756   84.3032    9.5271 N.2     1  UNL1       -0.2508
      9 H          64.8976   81.4209   10.6276 H       1  UNL1        0.1442
     10 H          64.5472   81.8845    9.0245 H       1  UNL1        0.1442
     11 C          61.9183   86.8801   10.0232 C.ar    1  UNL1        0.0255
     12 C          62.5394   88.0713   10.6905 C.ar    1  UNL1        0.0021
     13 C          61.8276   89.3915   10.6822 C.ar    1  UNL1        0.0295
     14 C          60.4946   89.5206   10.0065 C.ar    1  UNL1        0.1424
     15 F          59.7827   90.8410    9.9982 F       1  UNL1       -0.2041
     16 C          59.8735   88.3295    9.3393 C.ar    1  UNL1        0.0590
     17 C          60.5853   87.0092    9.3476 C.ar    1  UNL1        0.1401
     18 F          59.9642   85.8180    8.6803 F       1  UNL1       -0.2044
     19 C          63.1083   85.1286   13.9476 C.ar    1  UNL1        0.0263
     20 C          62.2843   84.2523   14.8435 C.ar    1  UNL1        0.0987
     21 N          62.2285   84.5274   16.3171 N.ar    1  UNL1       -0.2227
     22 C          62.9968   85.6790   16.8945 C.ar    1  UNL1        0.1989
     23 N          63.8209   86.5555   15.9986 N.ar    1  UNL1       -0.2227
     24 C          63.8767   86.2803   14.5250 C.ar    1  UNL1        0.0987
@<TRIPOS>BOND
     1     2     1    1
     2     2    11    1
     3    11    12   ar
     4    12    13   ar
     5    13    14   ar
     6    14    15    1
     7    14    16   ar
     8    16    17   ar
     9    17    18    1
    10     2     3    1
    11     3     4    1
    12     4    19    1
    13    19    20   ar
    14    20    21   ar
    15    21    22   ar
    16    22    23   ar
    17    23    24   ar
    18     4     5    1
    19     5     6    1
    20     6     7    1
    21     6     8    2
    22     8     2    1
    23    17    11   ar
    24    24    19   ar
    25     7     9    1
    26     7    10    1
