@<TRIPOS>MOLECULE
*****
 36 40 0 0 0
SMALL
GASTEIGER

@<TRIPOS>ATOM
      1 O          58.3744   89.6365    6.6272 O.3     1  UNL1       -0.4535
      2 C          60.4499   92.2539    3.6120 C.ar    1  UNL1        0.0536
      3 C          61.2344   91.2407    4.3918 C.ar    1  UNL1        0.0076
      4 C          60.5425   90.3683    5.3968 C.ar    1  UNL1        0.0376
      5 C          59.0663   90.5089    5.6221 C.ar    1  UNL1        0.1453
      6 C          58.2817   91.5221    4.8422 C.ar    1  UNL1        0.0376
      7 C          58.9737   92.3946    3.8371 C.ar    1  UNL1        0.0076
      8 N          62.4296   92.6761    1.9834 N.am    1  UNL1       -0.3024
      9 C          61.1418   93.1263    2.6069 C.2     1  UNL1        0.2458
     10 O          60.5460   94.4489    2.2253 O.2     1  UNL1       -0.2701
     11 H          62.8207   91.8080    2.2338 H       1  UNL1        0.1497
     12 C          65.1976   96.1657   -2.0368 C.3     1  UNL1        0.0896
     13 N          64.5056   95.2933   -1.0317 N.3     1  UNL1       -0.2714
     14 C          63.3536   94.4306   -1.4544 C.3     1  UNL1        0.0738
     15 C          62.6615   93.5582   -0.4494 C.3     1  UNL1        0.0369
     16 C          63.1216   93.5485    0.9783 C.3     1  UNL1        0.0746
     17 C          64.2736   94.4111    1.4009 C.3     1  UNL1        0.0369
     18 C          64.9657   95.2836    0.3959 C.3     1  UNL1        0.0738
     19 C          59.1802   88.7683    7.5475 C.ar    1  UNL1        0.1453
     20 C          60.0472   89.3930    8.6001 C.ar    1  UNL1        0.0381
     21 C          60.8529   88.5249    9.5205 C.ar    1  UNL1        0.0114
     22 C          60.7916   87.0319    9.3882 C.ar    1  UNL1        0.0419
     23 C          59.9246   86.4072    8.3357 C.ar    1  UNL1        0.0114
     24 C          59.1188   87.2754    7.4153 C.ar    1  UNL1        0.0381
     25 C          61.5973   86.1638   10.3086 C.1     1  UNL1       -0.0621
     26 C          62.4032   85.2957   11.2289 C.1     1  UNL1       -0.0597
     27 C          63.6372   83.7012   13.0729 C.3     1  UNL1        0.1561
     28 O          63.1658   85.9455   12.8766 O.3     1  UNL1       -0.3739
     29 C          63.3613   82.6743   12.2309 C.3     1  UNL1        0.1120
     30 N          63.2163   82.0199   11.7526 N.3     1  UNL1       -0.2699
     31 C          63.9386   81.7598   13.0412 C.3     1  UNL1        0.0723
     32 C          64.2438   82.8954   13.9724 C.3     1  UNL1        0.0207
     33 C          63.8265   84.2912   13.6151 C.3     1  UNL1        0.0404
     34 C          63.1042   84.5513   12.3265 C.3     1  UNL1        0.0207
     35 C          62.7990   83.4157   11.3953 C.3     1  UNL1        0.0723
     36 H          62.6991   86.1060   12.0416 H       1  UNL1        0.2115
@<TRIPOS>BOND
     1    12    13    1
     2    13    14    1
     3    14    15    1
     4    15    16    1
     5    16     8    1
     6     8     9   am
     7     9    10    2
     8     9     2    1
     9     2     3   ar
    10     3     4   ar
    11     4     5   ar
    12     5     1    1
    13     1    19    1
    14    19    20   ar
    15    20    21   ar
    16    21    22   ar
    17    22    25    1
    18    25    26    3
    19    26    27    1
    20    27    28    1
    21    27    29    1
    22    29    30    1
    23    30    31    1
    24    31    32    1
    25    32    33    1
    26    33    34    1
    27    34    35    1
    28    22    23   ar
    29    23    24   ar
    30     5     6   ar
    31     6     7   ar
    32    16    17    1
    33    17    18    1
    34    18    13    1
    35     7     2   ar
    36    24    19   ar
    37    33    27    1
    38    35    30    1
    39     8    11    1
    40    28    36    1
@<TRIPOS>MOLECULE
*****
 36 40 0 0 0
SMALL
GASTEIGER

@<TRIPOS>ATOM
      1 O          58.6841   90.2739    6.1360 O.3     1  UNL1       -0.4535
      2 C          60.5749   87.4691    9.1038 C.ar    1  UNL1        0.0536
      3 C          59.7627   86.9224    7.9674 C.ar    1  UNL1        0.0076
      4 C          59.1324   87.8574    6.9781 C.ar    1  UNL1        0.0376
      5 C          59.3143   89.3390    7.1252 C.ar    1  UNL1        0.1453
      6 C          60.1266   89.8857    8.2618 C.ar    1  UNL1        0.0376
      7 C          60.7568   88.9507    9.2510 C.ar    1  UNL1        0.0076
      8 N          62.1712   85.4866    9.6246 N.am    1  UNL1       -0.3024
      9 C          61.2051   86.5341   10.0931 C.2     1  UNL1        0.2458
     10 O          60.8693   86.6465   11.5506 O.2     1  UNL1       -0.2701
     11 H          62.3916   85.4128    8.6680 H       1  UNL1        0.1497
     12 C          64.6924   81.7464   13.5813 C.3     1  UNL1        0.0896
     13 N          64.0621   82.6815   12.5921 N.3     1  UNL1       -0.2714
     14 C          63.1046   83.7361   13.0619 C.3     1  UNL1        0.0738
     15 C          62.4743   84.6712   12.0728 C.3     1  UNL1        0.0369
     16 C          62.8015   84.5515   10.6139 C.3     1  UNL1        0.0746
     17 C          63.7590   83.4969   10.1440 C.3     1  UNL1        0.0369
     18 C          64.3893   82.5617   11.1331 C.3     1  UNL1        0.0738
     19 C          59.5365   90.9826    5.1254 C.ar    1  UNL1        0.1453
     20 C          60.9726   90.5879    4.9468 C.ar    1  UNL1        0.0381
     21 C          61.8250   91.2965    3.9362 C.ar    1  UNL1        0.0114
     22 C          61.2413   92.3998    3.1042 C.ar    1  UNL1        0.0419
     23 C          59.8052   92.7944    3.2829 C.ar    1  UNL1        0.0114
     24 C          58.9528   92.0858    4.2935 C.ar    1  UNL1        0.0381
     25 C          62.0937   93.1084    2.0937 C.1     1  UNL1       -0.0621
     26 C          62.9461   93.8168    1.0831 C.1     1  UNL1       -0.0597
     27 C          64.5300   95.3166   -0.5624 C.3     1  UNL1        0.1561
     28 O          63.0467   93.5768   -0.8277 O.3     1  UNL1       -0.3739
     29 C          64.9190   95.9685    0.5616 C.3     1  UNL1        0.1120
     30 N          65.1850   96.3929    1.2151 N.3     1  UNL1       -0.2699
     31 C          65.7505   96.7904   -0.1161 C.3     1  UNL1        0.0723
     32 C          65.3204   96.0695   -1.3591 C.3     1  UNL1        0.0207
     33 C          64.3247   94.9511   -1.2710 C.3     1  UNL1        0.0404
     34 C          63.7592   94.5536    0.0602 C.3     1  UNL1        0.0207
     35 C          64.1893   95.2745    1.3032 C.3     1  UNL1        0.0723
     36 H          62.6853   93.3253    0.0367 H       1  UNL1        0.2115
@<TRIPOS>BOND
     1    12    13    1
     2    13    14    1
     3    14    15    1
     4    15    16    1
     5    16     8    1
     6     8     9   am
     7     9    10    2
     8     9     2    1
     9     2     3   ar
    10     3     4   ar
    11     4     5   ar
    12     5     1    1
    13     1    19    1
    14    19    20   ar
    15    20    21   ar
    16    21    22   ar
    17    22    25    1
    18    25    26    3
    19    26    27    1
    20    27    28    1
    21    27    29    1
    22    29    30    1
    23    30    31    1
    24    31    32    1
    25    32    33    1
    26    33    34    1
    27    34    35    1
    28    22    23   ar
    29    23    24   ar
    30     5     6   ar
    31     6     7   ar
    32    16    17    1
    33    17    18    1
    34    18    13    1
    35     7     2   ar
    36    24    19   ar
    37    33    27    1
    38    35    30    1
    39     8    11    1
    40    28    36    1
@<TRIPOS>MOLECULE
*****
 36 40 0 0 0
SMALL
GASTEIGER

@<TRIPOS>ATOM
      1 O          63.6556   88.6295   15.8828 O.3     1  UNL1       -0.4535
      2 C          63.4874   84.4050   14.3417 C.ar    1  UNL1        0.0536
      3 C          63.8654   85.5255   13.4189 C.ar    1  UNL1        0.0076
      4 C          63.9214   86.9336   13.9326 C.ar    1  UNL1        0.0376
      5 C          63.5995   87.2214   15.3691 C.ar    1  UNL1        0.1453
      6 C          63.2216   86.1008   16.2920 C.ar    1  UNL1        0.0376
      7 C          63.1656   84.6926   15.7782 C.ar    1  UNL1        0.0076
      8 N          62.9540   82.7263   12.4319 N.am    1  UNL1       -0.3024
      9 C          63.4314   82.9968   13.8279 C.2     1  UNL1        0.2458
     10 O          63.8528   81.8592   14.7101 O.2     1  UNL1       -0.2701
     11 H          62.6774   83.4730   11.8529 H       1  UNL1        0.1497
     12 C          62.7297   77.0937   10.3767 C.3     1  UNL1        0.0896
     13 N          62.7858   78.5019   10.8905 N.3     1  UNL1       -0.2714
     14 C          63.1363   79.6259    9.9612 C.3     1  UNL1        0.0738
     15 C          63.1924   81.0341   10.4750 C.3     1  UNL1        0.0369
     16 C          62.8979   81.3181   11.9181 C.3     1  UNL1        0.0746
     17 C          62.5474   80.1941   12.8474 C.3     1  UNL1        0.0369
     18 C          62.4913   78.7859   12.3336 C.3     1  UNL1        0.0738
     19 C          64.1314   89.7358   14.9885 C.ar    1  UNL1        0.1453
     20 C          63.3239   90.1288   13.7871 C.ar    1  UNL1        0.0381
     21 C          63.7997   91.2351   12.8928 C.ar    1  UNL1        0.0114
     22 C          65.0831   91.9483   13.1999 C.ar    1  UNL1        0.0419
     23 C          65.8906   91.5552   14.4013 C.ar    1  UNL1        0.0114
     24 C          65.4148   90.4489   15.2956 C.ar    1  UNL1        0.0381
     25 C          65.5589   93.0545   12.3056 C.1     1  UNL1       -0.0621
     26 C          66.0346   94.1608   11.4114 C.1     1  UNL1       -0.0597
     27 C          66.9441   95.9744    9.5813 C.3     1  UNL1        0.1561
     28 O          65.8593   96.0710   11.6090 O.3     1  UNL1       -0.3739
     29 C          67.3646   94.9012    8.8664 C.3     1  UNL1        0.1120
     30 N          67.6373   94.2817    8.3976 N.3     1  UNL1       -0.2699
     31 C          67.8661   95.6683    7.8733 C.3     1  UNL1        0.0723
     32 C          67.4011   96.8552    8.6638 C.3     1  UNL1        0.0207
     33 C          66.7073   96.6555    9.9786 C.3     1  UNL1        0.0404
     34 C          66.4785   95.2689   10.5029 C.3     1  UNL1        0.0207
     35 C          66.9435   94.0820    9.7124 C.3     1  UNL1        0.0723
     36 H          65.7149   95.1714   11.9416 H       1  UNL1        0.2115
@<TRIPOS>BOND
     1    12    13    1
     2    13    14    1
     3    14    15    1
     4    15    16    1
     5    16     8    1
     6     8     9   am
     7     9    10    2
     8     9     2    1
     9     2     3   ar
    10     3     4   ar
    11     4     5   ar
    12     5     1    1
    13     1    19    1
    14    19    20   ar
    15    20    21   ar
    16    21    22   ar
    17    22    25    1
    18    25    26    3
    19    26    27    1
    20    27    28    1
    21    27    29    1
    22    29    30    1
    23    30    31    1
    24    31    32    1
    25    32    33    1
    26    33    34    1
    27    34    35    1
    28    22    23   ar
    29    23    24   ar
    30     5     6   ar
    31     6     7   ar
    32    16    17    1
    33    17    18    1
    34    18    13    1
    35     7     2   ar
    36    24    19   ar
    37    33    27    1
    38    35    30    1
    39     8    11    1
    40    28    36    1
