@<TRIPOS>MOLECULE
*****
 22 24 0 0 0
SMALL
GASTEIGER

@<TRIPOS>ATOM
      1 C          64.4271   91.3936   12.3561 C.ar    1  UNL1       -0.0208
      2 C          64.0674   91.7744   10.9506 C.ar    1  UNL1       -0.0042
      3 C          63.1804   90.8809   10.1351 C.ar    1  UNL1        0.0012
      4 C          62.6532   89.6066   10.7252 C.ar    1  UNL1        0.0193
      5 C          63.0129   89.2258   12.1308 C.ar    1  UNL1        0.0012
      6 C          63.8998   90.1193   12.9462 C.ar    1  UNL1       -0.0042
      7 C          61.7663   88.7130    9.9097 C.ar    1  UNL1        0.1011
      8 C          61.8229   87.2260   10.0979 C.ar    1  UNL1        0.0258
      9 C          60.9360   86.3325    9.2824 C.ar    1  UNL1        0.0638
     10 C          59.9924   86.9261    8.2787 C.ar    1  UNL1        0.2765
     11 O          59.1055   86.0326    7.4632 O.2     1  UNL1       -0.2655
     12 N          59.9358   88.4132    8.0906 N.ar    1  UNL1       -0.2146
     13 C          58.9922   89.0068    7.0869 C.3     1  UNL1        0.1571
     14 N          60.8227   89.3066    8.9061 N.ar    1  UNL1       -0.1668
     15 C          65.3140   92.2871   13.1716 C.3     1  UNL1        0.0437
     16 C          66.6701   92.6697   12.6571 C.3     1  UNL1        0.0768
     17 C          68.0933   92.0339    9.7902 C.3     1  UNL1        0.0173
     18 C          67.4480   93.3287   10.1862 C.3     1  UNL1        0.0576
     19 C          67.3436   94.5587    9.3339 C.3     1  UNL1        0.0174
     20 C          66.6248   95.6111   10.1250 C.3     1  UNL1        0.0187
     21 C          66.2850   95.0316   11.4662 C.3     1  UNL1        0.0721
     22 N          66.7938   93.6210   11.5039 N.3     1  UNL1       -0.2737
@<TRIPOS>BOND
     1    18    17    1
     2    18    19    1
     3    19    20    1
     4    20    21    1
     5    21    22    1
     6    22    16    1
     7    16    15    1
     8    15     1    1
     9     1     2   ar
    10     2     3   ar
    11     3     4   ar
    12     4     7    1
    13     7     8   ar
    14     8     9   ar
    15     9    10   ar
    16    10    11    2
    17    10    12   ar
    18    12    13    1
    19    12    14   ar
    20     4     5   ar
    21     5     6   ar
    22    22    18    1
    23     6     1   ar
    24    14     7   ar
@<TRIPOS>MOLECULE
*****
 22 24 0 0 0
SMALL
GASTEIGER

@<TRIPOS>ATOM
      1 C          64.4603   91.4663   12.2819 C.ar    1  UNL1       -0.0208
      2 C          64.0503   91.8494   10.8909 C.ar    1  UNL1       -0.0042
      3 C          63.1538   90.9456   10.0975 C.ar    1  UNL1        0.0012
      4 C          62.6674   89.6587   10.6952 C.ar    1  UNL1        0.0193
      5 C          63.0775   89.2756   12.0862 C.ar    1  UNL1        0.0012
      6 C          63.9739   90.1794   12.8796 C.ar    1  UNL1       -0.0042
      7 C          61.7710   88.7548    9.9017 C.ar    1  UNL1        0.1011
      8 C          61.8139   87.2721   10.1244 C.ar    1  UNL1        0.0258
      9 C          60.9174   86.3682    9.3309 C.ar    1  UNL1        0.0638
     10 C          59.9781   86.9472    8.3149 C.ar    1  UNL1        0.2765
     11 O          59.0816   86.0435    7.5214 O.2     1  UNL1       -0.2655
     12 N          59.9352   88.4300    8.0923 N.ar    1  UNL1       -0.2146
     13 C          58.9958   89.0090    7.0762 C.3     1  UNL1        0.1571
     14 N          60.8316   89.3338    8.8857 N.ar    1  UNL1       -0.1668
     15 C          65.3568   92.3702   13.0754 C.3     1  UNL1        0.0437
     16 C          66.8140   92.4691   12.7341 C.3     1  UNL1        0.0768
     17 C          66.1271   95.3106   11.2840 C.3     1  UNL1        0.0173
     18 C          66.9193   94.1853   10.6875 C.3     1  UNL1        0.0576
     19 C          67.5348   94.1684    9.3197 C.3     1  UNL1        0.0174
     20 C          68.2310   92.8518    9.1408 C.3     1  UNL1        0.0187
     21 C          68.0457   92.0550   10.3982 C.3     1  UNL1        0.0721
     22 N          67.2350   92.8791   11.3540 N.3     1  UNL1       -0.2737
@<TRIPOS>BOND
     1    18    17    1
     2    18    19    1
     3    19    20    1
     4    20    21    1
     5    21    22    1
     6    22    16    1
     7    16    15    1
     8    15     1    1
     9     1     2   ar
    10     2     3   ar
    11     3     4   ar
    12     4     7    1
    13     7     8   ar
    14     8     9   ar
    15     9    10   ar
    16    10    11    2
    17    10    12   ar
    18    12    13    1
    19    12    14   ar
    20     4     5   ar
    21     5     6   ar
    22    22    18    1
    23     6     1   ar
    24    14     7   ar
@<TRIPOS>MOLECULE
*****
 22 24 0 0 0
SMALL
GASTEIGER

@<TRIPOS>ATOM
      1 C          64.1075   88.3830   14.0328 C.ar    1  UNL1       -0.0208
      2 C          64.5669   87.2817   14.9416 C.ar    1  UNL1       -0.0042
      3 C          64.3216   85.8498   14.5683 C.ar    1  UNL1        0.0012
      4 C          63.6168   85.5192   13.2861 C.ar    1  UNL1        0.0193
      5 C          63.1574   86.6205   12.3773 C.ar    1  UNL1        0.0012
      6 C          63.4028   88.0524   12.7506 C.ar    1  UNL1       -0.0042
      7 C          63.3715   84.0872   12.9127 C.ar    1  UNL1        0.1011
      8 C          64.0854   83.4853   11.7389 C.ar    1  UNL1        0.0258
      9 C          63.8401   82.0533   11.3656 C.ar    1  UNL1        0.0638
     10 C          62.8808   81.2233   12.1661 C.ar    1  UNL1        0.2765
     11 O          62.6354   79.7914   11.7928 O.2     1  UNL1       -0.2655
     12 N          62.1668   81.8253   13.3400 N.ar    1  UNL1       -0.2146
     13 C          61.2075   80.9954   14.1405 C.3     1  UNL1        0.1571
     14 N          62.4122   83.2573   13.7133 N.ar    1  UNL1       -0.1668
     15 C          64.3529   89.8150   14.4062 C.3     1  UNL1        0.0437
     16 C          63.7038   90.9164   13.6216 C.3     1  UNL1        0.0768
     17 C          63.2580   91.1527   10.3975 C.3     1  UNL1        0.0173
     18 C          64.3164   91.8553   11.1950 C.3     1  UNL1        0.0576
     19 C          65.3557   92.7899   10.6506 C.3     1  UNL1        0.0174
     20 C          66.2031   93.2589   11.7961 C.3     1  UNL1        0.0187
     21 C          65.6873   92.6141   13.0486 C.3     1  UNL1        0.0721
     22 N          64.5214   91.7467   12.6769 N.3     1  UNL1       -0.2737
@<TRIPOS>BOND
     1    18    17    1
     2    18    19    1
     3    19    20    1
     4    20    21    1
     5    21    22    1
     6    22    16    1
     7    16    15    1
     8    15     1    1
     9     1     2   ar
    10     2     3   ar
    11     3     4   ar
    12     4     7    1
    13     7     8   ar
    14     8     9   ar
    15     9    10   ar
    16    10    11    2
    17    10    12   ar
    18    12    13    1
    19    12    14   ar
    20     4     5   ar
    21     5     6   ar
    22    22    18    1
    23     6     1   ar
    24    14     7   ar
@<TRIPOS>MOLECULE
*****
 22 24 0 0 0
SMALL
GASTEIGER

@<TRIPOS>ATOM
      1 C          64.4003   91.0899   15.2615 C.ar    1  UNL1       -0.0208
      2 C          63.8208   90.9145   13.8891 C.ar    1  UNL1       -0.0042
      3 C          64.4345   91.6253   12.7195 C.ar    1  UNL1        0.0012
      4 C          65.6277   92.5114   12.9222 C.ar    1  UNL1        0.0193
      5 C          66.2072   92.6868   14.2945 C.ar    1  UNL1        0.0012
      6 C          65.5935   91.9760   15.4642 C.ar    1  UNL1       -0.0042
      7 C          66.2414   93.2221   11.7524 C.ar    1  UNL1        0.1011
      8 C          65.9031   94.6590   11.4863 C.ar    1  UNL1        0.0258
      9 C          66.5168   95.3698   10.3165 C.ar    1  UNL1        0.0638
     10 C          67.4688   94.6436    9.4130 C.ar    1  UNL1        0.2765
     11 O          68.0825   95.3543    8.2433 O.2     1  UNL1       -0.2655
     12 N          67.8071   93.2066    9.6792 N.ar    1  UNL1       -0.2146
     13 C          68.7591   92.4804    8.7757 C.3     1  UNL1        0.1571
     14 N          67.1934   92.4960   10.8489 N.ar    1  UNL1       -0.1668
     15 C          63.7866   90.3791   16.4313 C.3     1  UNL1        0.0437
     16 C          62.8836   89.2030   16.2047 C.3     1  UNL1        0.0768
     17 C          62.5548   86.4986   18.0011 C.3     1  UNL1        0.0173
     18 C          63.3173   86.6152   16.7147 C.3     1  UNL1        0.0576
     19 C          64.0626   85.5092   16.0281 C.3     1  UNL1        0.0174
     20 C          64.6744   86.0688   14.7780 C.3     1  UNL1        0.0187
     21 C          64.3072   87.5206   14.6920 C.3     1  UNL1        0.0721
     22 N          63.4685   87.8582   15.8889 N.3     1  UNL1       -0.2737
@<TRIPOS>BOND
     1    18    17    1
     2    18    19    1
     3    19    20    1
     4    20    21    1
     5    21    22    1
     6    22    16    1
     7    16    15    1
     8    15     1    1
     9     1     2   ar
    10     2     3   ar
    11     3     4   ar
    12     4     7    1
    13     7     8   ar
    14     8     9   ar
    15     9    10   ar
    16    10    11    2
    17    10    12   ar
    18    12    13    1
    19    12    14   ar
    20     4     5   ar
    21     5     6   ar
    22    22    18    1
    23     6     1   ar
    24    14     7   ar
@<TRIPOS>MOLECULE
*****
 22 24 0 0 0
SMALL
GASTEIGER

@<TRIPOS>ATOM
      1 C          63.8853   89.7477   13.4072 C.ar    1  UNL1       -0.0208
      2 C          63.2005   88.9527   12.3353 C.ar    1  UNL1       -0.0042
      3 C          63.1262   87.4584   12.4416 C.ar    1  UNL1        0.0012
      4 C          63.7366   86.7590   13.6198 C.ar    1  UNL1        0.0193
      5 C          64.4215   87.5539   14.6917 C.ar    1  UNL1        0.0012
      6 C          64.4958   89.0482   14.5854 C.ar    1  UNL1       -0.0042
      7 C          63.6623   85.2645   13.7260 C.ar    1  UNL1        0.1011
      8 C          63.6920   84.6060   15.0733 C.ar    1  UNL1        0.0258
      9 C          63.6176   83.1116   15.1796 C.ar    1  UNL1        0.0638
     10 C          63.5135   82.2757   13.9384 C.ar    1  UNL1        0.2765
     11 O          63.4392   80.7814   14.0446 O.2     1  UNL1       -0.2655
     12 N          63.4838   82.9343   12.5910 N.ar    1  UNL1       -0.2146
     13 C          63.3797   82.0985   11.3498 C.3     1  UNL1        0.1571
     14 N          63.5582   84.4287   12.4848 N.ar    1  UNL1       -0.1668
     15 C          63.9597   91.2421   13.3010 C.3     1  UNL1        0.0437
     16 C          65.2663   91.9074   12.9846 C.3     1  UNL1        0.0768
     17 C          68.5106   91.7283   12.6820 C.3     1  UNL1        0.0173
     18 C          67.7594   92.0667   13.9355 C.3     1  UNL1        0.0576
     19 C          68.3676   92.3822   15.2699 C.3     1  UNL1        0.0174
     20 C          67.2521   92.6595   16.2337 C.3     1  UNL1        0.0187
     21 C          65.9546   92.5154   15.4949 C.3     1  UNL1        0.0721
     22 N          66.2682   92.1490   14.0746 N.3     1  UNL1       -0.2737
@<TRIPOS>BOND
     1    18    17    1
     2    18    19    1
     3    19    20    1
     4    20    21    1
     5    21    22    1
     6    22    16    1
     7    16    15    1
     8    15     1    1
     9     1     2   ar
    10     2     3   ar
    11     3     4   ar
    12     4     7    1
    13     7     8   ar
    14     8     9   ar
    15     9    10   ar
    16    10    11    2
    17    10    12   ar
    18    12    13    1
    19    12    14   ar
    20     4     5   ar
    21     5     6   ar
    22    22    18    1
    23     6     1   ar
    24    14     7   ar
@<TRIPOS>MOLECULE
*****
 22 24 0 0 0
SMALL
GASTEIGER

@<TRIPOS>ATOM
      1 C          63.9416   88.6871   13.9374 C.ar    1  UNL1       -0.0208
      2 C          63.2709   88.3217   12.6464 C.ar    1  UNL1       -0.0042
      3 C          63.0768   86.8791   12.2842 C.ar    1  UNL1        0.0012
      4 C          63.5534   85.8020   13.2129 C.ar    1  UNL1        0.0193
      5 C          64.2241   86.1674   14.5039 C.ar    1  UNL1        0.0012
      6 C          64.4182   87.6100   14.8661 C.ar    1  UNL1       -0.0042
      7 C          63.3593   84.3593   12.8506 C.ar    1  UNL1        0.1011
      8 C          64.0570   83.7865   11.6527 C.ar    1  UNL1        0.0258
      9 C          63.8629   82.3438   11.2904 C.ar    1  UNL1        0.0638
     10 C          62.9711   81.4741   12.1261 C.ar    1  UNL1        0.2765
     11 O          62.7770   80.0315   11.7638 O.2     1  UNL1       -0.2655
     12 N          62.2734   82.0471   13.3240 N.ar    1  UNL1       -0.2146
     13 C          61.3816   81.1774   14.1597 C.3     1  UNL1        0.1571
     14 N          62.4675   83.4896   13.6863 N.ar    1  UNL1       -0.1668
     15 C          64.1357   90.1298   14.2997 C.3     1  UNL1        0.0437
     16 C          65.4810   90.7711   14.1303 C.3     1  UNL1        0.0768
     17 C          67.1162   93.5205   14.7756 C.3     1  UNL1        0.0173
     18 C          66.3955   93.2023   13.4992 C.3     1  UNL1        0.0576
     19 C          66.2998   94.0920   12.2954 C.3     1  UNL1        0.0174
     20 C          65.4890   93.3782   11.2546 C.3     1  UNL1        0.0187
     21 C          65.0836   92.0472   11.8154 C.3     1  UNL1        0.0721
     22 N          65.6438   91.9386   13.2026 N.3     1  UNL1       -0.2737
@<TRIPOS>BOND
     1    18    17    1
     2    18    19    1
     3    19    20    1
     4    20    21    1
     5    21    22    1
     6    22    16    1
     7    16    15    1
     8    15     1    1
     9     1     2   ar
    10     2     3   ar
    11     3     4   ar
    12     4     7    1
    13     7     8   ar
    14     8     9   ar
    15     9    10   ar
    16    10    11    2
    17    10    12   ar
    18    12    13    1
    19    12    14   ar
    20     4     5   ar
    21     5     6   ar
    22    22    18    1
    23     6     1   ar
    24    14     7   ar
@<TRIPOS>MOLECULE
*****
 22 24 0 0 0
SMALL
GASTEIGER

@<TRIPOS>ATOM
      1 C          61.3728   89.4720   10.3767 C.ar    1  UNL1       -0.0208
      2 C          61.4690   89.2649   11.8592 C.ar    1  UNL1       -0.0042
      3 C          62.5140   89.9926   12.6518 C.ar    1  UNL1        0.0012
      4 C          63.4628   90.9274   11.9620 C.ar    1  UNL1        0.0193
      5 C          63.3666   91.1346   10.4795 C.ar    1  UNL1        0.0012
      6 C          62.3215   90.4068    9.6869 C.ar    1  UNL1       -0.0042
      7 C          64.5079   91.6552   12.7547 C.ar    1  UNL1        0.1011
      8 C          65.5983   92.4048   12.0482 C.ar    1  UNL1        0.0258
      9 C          66.6433   93.1325   12.8409 C.ar    1  UNL1        0.0638
     10 C          66.5979   93.1106   14.3401 C.ar    1  UNL1        0.2765
     11 O          67.6429   93.8383   15.1328 O.2     1  UNL1       -0.2655
     12 N          65.5075   92.3610   15.0465 N.ar    1  UNL1       -0.2146
     13 C          65.4621   92.3390   16.5457 C.3     1  UNL1        0.1571
     14 N          64.4625   91.6333   14.2538 N.ar    1  UNL1       -0.1668
     15 C          60.3277   88.7443    9.5840 C.3     1  UNL1        0.0437
     16 C          60.1717   87.2599    9.7331 C.3     1  UNL1        0.0768
     17 C          62.4148   85.7651   11.5726 C.3     1  UNL1        0.0173
     18 C          62.2784   85.6521   10.0831 C.3     1  UNL1        0.0576
     19 C          63.1490   84.8323    9.1777 C.3     1  UNL1        0.0174
     20 C          62.6560   85.0127    7.7724 C.3     1  UNL1        0.0187
     21 C          61.4807   85.9440    7.8095 C.3     1  UNL1        0.0721
     22 N          61.2474   86.3392    9.2376 N.3     1  UNL1       -0.2737
@<TRIPOS>BOND
     1    18    17    1
     2    18    19    1
     3    19    20    1
     4    20    21    1
     5    21    22    1
     6    22    16    1
     7    16    15    1
     8    15     1    1
     9     1     2   ar
    10     2     3   ar
    11     3     4   ar
    12     4     7    1
    13     7     8   ar
    14     8     9   ar
    15     9    10   ar
    16    10    11    2
    17    10    12   ar
    18    12    13    1
    19    12    14   ar
    20     4     5   ar
    21     5     6   ar
    22    22    18    1
    23     6     1   ar
    24    14     7   ar
@<TRIPOS>MOLECULE
*****
 22 24 0 0 0
SMALL
GASTEIGER

@<TRIPOS>ATOM
      1 C          64.0612   90.3338   13.3860 C.ar    1  UNL1       -0.0208
      2 C          63.8771   88.8555   13.5608 C.ar    1  UNL1       -0.0042
      3 C          63.1639   88.0590   12.5087 C.ar    1  UNL1        0.0012
      4 C          62.6347   88.7409   11.2819 C.ar    1  UNL1        0.0193
      5 C          62.8188   90.2192   11.1071 C.ar    1  UNL1        0.0012
      6 C          63.5321   91.0157   12.1592 C.ar    1  UNL1       -0.0042
      7 C          61.9215   87.9443   10.2298 C.ar    1  UNL1        0.1011
      8 C          62.2235   86.4848   10.0607 C.ar    1  UNL1        0.0258
      9 C          61.5102   85.6883    9.0086 C.ar    1  UNL1        0.0638
     10 C          60.4950   86.3513    8.1256 C.ar    1  UNL1        0.2765
     11 O          59.7817   85.5548    7.0736 O.2     1  UNL1       -0.2655
     12 N          60.1930   87.8108    8.2947 N.ar    1  UNL1       -0.2146
     13 C          59.1777   88.4739    7.4117 C.3     1  UNL1        0.1571
     14 N          60.9062   88.6073    9.3468 N.ar    1  UNL1       -0.1668
     15 C          64.7744   91.1304   14.4381 C.3     1  UNL1        0.0437
     16 C          65.5982   92.3214   14.0472 C.3     1  UNL1        0.0768
     17 C          68.4564   91.6754   12.6109 C.3     1  UNL1        0.0173
     18 C          68.2691   92.2291   13.9924 C.3     1  UNL1        0.0576
     19 C          69.3627   92.5830   14.9562 C.3     1  UNL1        0.0174
     20 C          68.7248   93.0986   16.2121 C.3     1  UNL1        0.0187
     21 C          67.2369   93.0634   16.0244 C.3     1  UNL1        0.0721
     22 N          66.9554   92.5260   14.6526 N.3     1  UNL1       -0.2737
@<TRIPOS>BOND
     1    18    17    1
     2    18    19    1
     3    19    20    1
     4    20    21    1
     5    21    22    1
     6    22    16    1
     7    16    15    1
     8    15     1    1
     9     1     2   ar
    10     2     3   ar
    11     3     4   ar
    12     4     7    1
    13     7     8   ar
    14     8     9   ar
    15     9    10   ar
    16    10    11    2
    17    10    12   ar
    18    12    13    1
    19    12    14   ar
    20     4     5   ar
    21     5     6   ar
    22    22    18    1
    23     6     1   ar
    24    14     7   ar
@<TRIPOS>MOLECULE
*****
 22 24 0 0 0
SMALL
GASTEIGER

@<TRIPOS>ATOM
      1 C          62.1430   88.3806   10.7557 C.ar    1  UNL1       -0.0208
      2 C          62.4012   89.7443   10.1869 C.ar    1  UNL1       -0.0042
      3 C          63.2846   90.7085   10.9217 C.ar    1  UNL1        0.0012
      4 C          63.9099   90.3089   12.2253 C.ar    1  UNL1        0.0193
      5 C          63.6517   88.9452   12.7941 C.ar    1  UNL1        0.0012
      6 C          62.7683   87.9811   12.0593 C.ar    1  UNL1       -0.0042
      7 C          64.7934   91.2732   12.9600 C.ar    1  UNL1        0.1011
      8 C          65.2814   90.9418   14.3391 C.ar    1  UNL1        0.0258
      9 C          66.1649   91.9061   15.0739 C.ar    1  UNL1        0.0638
     10 C          66.5603   93.2016   14.4295 C.ar    1  UNL1        0.2765
     11 O          67.4437   94.1658   15.1642 O.2     1  UNL1       -0.2655
     12 N          66.0721   93.5329   13.0503 N.ar    1  UNL1       -0.2146
     13 C          66.4675   94.8284   12.4059 C.3     1  UNL1        0.1571
     14 N          65.1887   92.5687   12.3156 N.ar    1  UNL1       -0.1668
     15 C          61.2595   87.4164   10.0210 C.3     1  UNL1        0.0437
     16 C          61.0262   86.0419   10.5742 C.3     1  UNL1        0.0768
     17 C          62.9544   85.1956    8.0812 C.3     1  UNL1        0.0173
     18 C          63.0396   84.6645    9.4814 C.3     1  UNL1        0.0576
     19 C          64.0260   83.6511    9.9815 C.3     1  UNL1        0.0174
     20 C          63.7493   83.4138   11.4366 C.3     1  UNL1        0.0187
     21 C          62.5918   84.2805   11.8357 C.3     1  UNL1        0.0721
     22 N          62.1533   85.0534   10.6273 N.3     1  UNL1       -0.2737
@<TRIPOS>BOND
     1    18    17    1
     2    18    19    1
     3    19    20    1
     4    20    21    1
     5    21    22    1
     6    22    16    1
     7    16    15    1
     8    15     1    1
     9     1     2   ar
    10     2     3   ar
    11     3     4   ar
    12     4     7    1
    13     7     8   ar
    14     8     9   ar
    15     9    10   ar
    16    10    11    2
    17    10    12   ar
    18    12    13    1
    19    12    14   ar
    20     4     5   ar
    21     5     6   ar
    22    22    18    1
    23     6     1   ar
    24    14     7   ar
