@<TRIPOS>MOLECULE
*****
 29 32 0 0 0
SMALL
GASTEIGER

@<TRIPOS>ATOM
      1 C          63.4516   90.4185   11.5543 C.ar    1  UNL1        0.0813
      2 C          63.2552   89.3768   12.6156 C.ar    1  UNL1        0.0365
      3 C          64.0031   89.4767   13.9120 C.ar    1  UNL1        0.0857
      4 C          64.9474   90.6181   14.1471 C.ar    1  UNL1        0.0989
      5 N          65.1438   91.6598   13.0858 N.ar    1  UNL1       -0.2906
      6 C          66.0013   92.8894   13.0327 C.ar    1  UNL1        0.0567
      7 C          66.9161   93.3738   14.1182 C.3     1  UNL1        0.0517
      8 C          65.7833   93.5495   11.7035 C.ar    1  UNL1        0.0730
      9 C          66.4420   94.8100   11.2265 C.3     1  UNL1        0.0534
     10 N          64.7911   92.7279   10.9351 N.ar    1  UNL1       -0.2299
     11 C          64.3959   91.5600   11.7894 C.ar    1  UNL1        0.1604
     12 N          63.8067   88.4350   14.9733 N.ar    1  UNL1       -0.2716
     13 C          64.2274   87.0176   14.7201 C.ar    1  UNL1        0.0830
     14 C          64.0311   85.9760   15.7813 C.ar    1  UNL1        0.0192
     15 C          63.4139   86.3516   17.0959 C.ar    1  UNL1        0.0064
     16 C          62.9932   87.7690   17.3492 C.ar    1  UNL1        0.0611
     17 C          63.1896   88.8106   16.2878 C.ar    1  UNL1        0.2649
     18 O          62.7689   90.2280   16.5411 O.2     1  UNL1       -0.2666
     19 N          62.7036   90.3187   10.2579 N.pl3   1  UNL1       -0.3266
     20 H          63.1700   90.4832    9.4066 H       1  UNL1        0.1472
     21 C          61.2451   89.9683   10.2585 C.3     1  UNL1        0.1174
     22 C          61.1683   87.4154    9.7826 C.ar    1  UNL1        0.1363
     23 C          60.6739   86.2612    8.9619 C.ar    1  UNL1        0.0366
     24 C          59.7617   86.5060    7.7965 C.ar    1  UNL1        0.0031
     25 C          59.3440   87.9048    7.4518 C.ar    1  UNL1       -0.0001
     26 C          59.8385   89.0589    8.2725 C.ar    1  UNL1        0.0004
     27 C          60.7507   88.8142    9.4379 C.ar    1  UNL1        0.0314
     28 C          62.3017   85.7734   11.4468 C.3     1  UNL1        0.2525
     29 O          62.0805   87.1707   10.9480 O.3     1  UNL1       -0.4717
@<TRIPOS>BOND
     1    28    29    1
     2    29    22    1
     3    22    23   ar
     4    23    24   ar
     5    24    25   ar
     6    25    26   ar
     7    26    27   ar
     8    27    21    1
     9    21    19    1
    10    19     1    1
    11     1     2   ar
    12     2     3   ar
    13     3    12    1
    14    12    13   ar
    15    13    14   ar
    16    14    15   ar
    17    15    16   ar
    18    16    17   ar
    19    17    18    2
    20     3     4   ar
    21     4     5   ar
    22     5     6   ar
    23     6     7    1
    24     6     8   ar
    25     8     9    1
    26     8    10   ar
    27    10    11   ar
    28    27    22   ar
    29    11     1   ar
    30    17    12   ar
    31    11     5   ar
    32    19    20    1
@<TRIPOS>MOLECULE
*****
 29 32 0 0 0
SMALL
GASTEIGER

@<TRIPOS>ATOM
      1 C          63.4342   90.9103   11.2738 C.ar    1  UNL1        0.0813
      2 C          64.2366   91.9129   10.4987 C.ar    1  UNL1        0.0365
      3 C          65.2395   92.7773   11.2038 C.ar    1  UNL1        0.0857
      4 C          65.4399   92.6390   12.6839 C.ar    1  UNL1        0.0989
      5 N          64.6375   91.6363   13.4589 N.ar    1  UNL1       -0.2906
      6 C          64.6168   91.2769   14.9151 C.ar    1  UNL1        0.0567
      7 C          65.4633   91.8954   15.9879 C.3     1  UNL1        0.0517
      8 C          63.6012   90.1904   15.1100 C.ar    1  UNL1        0.0730
      9 C          63.2536   89.5316   16.4121 C.3     1  UNL1        0.0534
     10 N          62.9941   89.8783   13.7743 N.ar    1  UNL1       -0.2299
     11 C          63.6346   90.7720   12.7539 C.ar    1  UNL1        0.1604
     12 N          66.0419   93.7800   10.4287 N.ar    1  UNL1       -0.2716
     13 C          65.5770   95.2032   10.3371 C.ar    1  UNL1        0.0830
     14 C          66.3794   96.2059    9.5620 C.ar    1  UNL1        0.0192
     15 C          67.6468   95.7854    8.8786 C.ar    1  UNL1        0.0064
     16 C          68.1117   94.3622    8.9703 C.ar    1  UNL1        0.0611
     17 C          67.3093   93.3595    9.7453 C.ar    1  UNL1        0.2649
     18 O          67.7742   91.9363    9.8370 O.2     1  UNL1       -0.2666
     19 N          62.4312   90.0459   10.5688 N.pl3   1  UNL1       -0.3266
     20 H          61.6682   90.4574   10.1023 H       1  UNL1        0.1472
     21 C          62.5909   88.5544   10.5745 C.3     1  UNL1        0.1174
     22 C          60.2914   87.9875    9.5064 C.ar    1  UNL1        0.1363
     23 C          59.4575   87.1403    8.5915 C.ar    1  UNL1        0.0366
     24 C          60.0892   86.0130    7.8300 C.ar    1  UNL1        0.0031
     25 C          61.5548   85.7328    7.9833 C.ar    1  UNL1       -0.0001
     26 C          62.3887   86.5799    8.8981 C.ar    1  UNL1        0.0004
     27 C          61.7570   87.7073    9.6597 C.ar    1  UNL1        0.0314
     28 C          59.3074   88.9377   11.7152 C.3     1  UNL1        0.2525
     29 O          59.6598   89.1149   10.2680 O.3     1  UNL1       -0.4717
@<TRIPOS>BOND
     1    28    29    1
     2    29    22    1
     3    22    23   ar
     4    23    24   ar
     5    24    25   ar
     6    25    26   ar
     7    26    27   ar
     8    27    21    1
     9    21    19    1
    10    19     1    1
    11     1     2   ar
    12     2     3   ar
    13     3    12    1
    14    12    13   ar
    15    13    14   ar
    16    14    15   ar
    17    15    16   ar
    18    16    17   ar
    19    17    18    2
    20     3     4   ar
    21     4     5   ar
    22     5     6   ar
    23     6     7    1
    24     6     8   ar
    25     8     9    1
    26     8    10   ar
    27    10    11   ar
    28    27    22   ar
    29    11     1   ar
    30    17    12   ar
    31    11     5   ar
    32    19    20    1
@<TRIPOS>MOLECULE
*****
 29 32 0 0 0
SMALL
GASTEIGER

@<TRIPOS>ATOM
      1 C          63.7683   86.8729   13.8673 C.ar    1  UNL1        0.0813
      2 C          64.4199   88.0220   14.5779 C.ar    1  UNL1        0.0365
      3 C          64.3263   89.4064   14.0081 C.ar    1  UNL1        0.0857
      4 C          63.5811   89.6417   12.7278 C.ar    1  UNL1        0.0989
      5 N          62.9295   88.4926   12.0172 N.ar    1  UNL1       -0.2906
      6 C          62.1335   88.4186   10.7480 C.ar    1  UNL1        0.0567
      7 C          61.7953   89.5722    9.8509 C.3     1  UNL1        0.0517
      8 C          61.7352   86.9885   10.5333 C.ar    1  UNL1        0.0730
      9 C          60.9287   86.4609    9.3838 C.3     1  UNL1        0.0534
     10 N          62.2849   86.1786   11.6699 N.ar    1  UNL1       -0.2299
     11 C          63.0231   87.1082   12.5870 C.ar    1  UNL1        0.1604
     12 N          64.9780   90.5555   14.7187 N.ar    1  UNL1       -0.2716
     13 C          66.2842   91.1008   14.2222 C.ar    1  UNL1        0.0830
     14 C          66.9359   92.2499   14.9327 C.ar    1  UNL1        0.0192
     15 C          66.2813   92.8538   16.1397 C.ar    1  UNL1        0.0064
     16 C          64.9751   92.3086   16.6362 C.ar    1  UNL1        0.0611
     17 C          64.3234   91.1594   15.9256 C.ar    1  UNL1        0.2649
     18 O          63.0172   90.6142   16.4221 O.2     1  UNL1       -0.2666
     19 N          63.8619   85.4884   14.4371 N.pl3   1  UNL1       -0.3266
     20 H          63.6032   85.3225   15.3724 H       1  UNL1        0.1472
     21 C          64.3496   84.3568   13.5818 C.3     1  UNL1        0.1174
     22 C          63.7327   82.1806   12.3038 C.ar    1  UNL1        0.1363
     23 C          62.9292   80.9181   12.2006 C.ar    1  UNL1        0.0366
     24 C          61.9393   80.5695   13.2722 C.ar    1  UNL1        0.0031
     25 C          61.7527   81.4833   14.4470 C.ar    1  UNL1       -0.0001
     26 C          62.5562   82.7457   14.5502 C.ar    1  UNL1        0.0004
     27 C          63.5462   83.0944   13.4786 C.ar    1  UNL1        0.0314
     28 C          64.2650   83.2301    9.9875 C.3     1  UNL1        0.2525
     29 O          64.7227   82.5292   11.2322 O.3     1  UNL1       -0.4717
@<TRIPOS>BOND
     1    28    29    1
     2    29    22    1
     3    22    23   ar
     4    23    24   ar
     5    24    25   ar
     6    25    26   ar
     7    26    27   ar
     8    27    21    1
     9    21    19    1
    10    19     1    1
    11     1     2   ar
    12     2     3   ar
    13     3    12    1
    14    12    13   ar
    15    13    14   ar
    16    14    15   ar
    17    15    16   ar
    18    16    17   ar
    19    17    18    2
    20     3     4   ar
    21     4     5   ar
    22     5     6   ar
    23     6     7    1
    24     6     8   ar
    25     8     9    1
    26     8    10   ar
    27    10    11   ar
    28    27    22   ar
    29    11     1   ar
    30    17    12   ar
    31    11     5   ar
    32    19    20    1
@<TRIPOS>MOLECULE
*****
 29 32 0 0 0
SMALL
GASTEIGER

@<TRIPOS>ATOM
      1 C          63.4283   86.5969   13.2746 C.ar    1  UNL1        0.0813
      2 C          62.6771   86.1804   12.0449 C.ar    1  UNL1        0.0365
      3 C          62.2993   87.2029   11.0146 C.ar    1  UNL1        0.0857
      4 C          62.6726   88.6419   11.2139 C.ar    1  UNL1        0.0989
      5 N          63.4239   89.0584   12.4436 N.ar    1  UNL1       -0.2906
      6 C          63.9246   90.3933   12.9099 C.ar    1  UNL1        0.0567
      7 C          63.7659   91.6968   12.1850 C.3     1  UNL1        0.0517
      8 C          64.6120   90.1957   14.2285 C.ar    1  UNL1        0.0730
      9 C          65.2613   91.2671   15.0536 C.3     1  UNL1        0.0534
     10 N          64.5360   88.7388   14.5771 N.ar    1  UNL1       -0.2299
     11 C          63.8017   88.0359   13.4739 C.ar    1  UNL1        0.1604
     12 N          61.5480   86.7864    9.7848 N.ar    1  UNL1       -0.2716
     13 C          62.2054   85.9007    8.7683 C.ar    1  UNL1        0.0830
     14 C          61.4543   85.4842    7.5386 C.ar    1  UNL1        0.0192
     15 C          60.0456   85.9535    7.3254 C.ar    1  UNL1        0.0064
     16 C          59.3881   86.8392    8.3418 C.ar    1  UNL1        0.0611
     17 C          60.1394   87.2557    9.5716 C.ar    1  UNL1        0.2649
     18 O          59.4819   88.1414   10.5881 O.2     1  UNL1       -0.2666
     19 N          63.8062   85.5743   14.3050 N.pl3   1  UNL1       -0.3266
     20 H          63.6391   85.7516   15.2588 H       1  UNL1        0.1472
     21 C          64.4388   84.2816   13.8820 C.3     1  UNL1        0.1174
     22 C          63.7613   82.2379   12.4279 C.ar    1  UNL1        0.1363
     23 C          62.9103   81.0215   12.2130 C.ar    1  UNL1        0.0366
     24 C          61.8857   80.6325   13.2371 C.ar    1  UNL1        0.0031
     25 C          61.7122   81.4599   14.4762 C.ar    1  UNL1       -0.0001
     26 C          62.5632   82.6762   14.6912 C.ar    1  UNL1        0.0004
     27 C          63.5878   83.0653   13.6670 C.ar    1  UNL1        0.0314
     28 C          64.3499   83.1728   10.0764 C.3     1  UNL1        0.2525
     29 O          64.7859   82.6269   11.4038 O.3     1  UNL1       -0.4717
@<TRIPOS>BOND
     1    28    29    1
     2    29    22    1
     3    22    23   ar
     4    23    24   ar
     5    24    25   ar
     6    25    26   ar
     7    26    27   ar
     8    27    21    1
     9    21    19    1
    10    19     1    1
    11     1     2   ar
    12     2     3   ar
    13     3    12    1
    14    12    13   ar
    15    13    14   ar
    16    14    15   ar
    17    15    16   ar
    18    16    17   ar
    19    17    18    2
    20     3     4   ar
    21     4     5   ar
    22     5     6   ar
    23     6     7    1
    24     6     8   ar
    25     8     9    1
    26     8    10   ar
    27    10    11   ar
    28    27    22   ar
    29    11     1   ar
    30    17    12   ar
    31    11     5   ar
    32    19    20    1
@<TRIPOS>MOLECULE
*****
 29 32 0 0 0
SMALL
GASTEIGER

@<TRIPOS>ATOM
      1 C          63.6264   86.7755   13.7204 C.ar    1  UNL1        0.0813
      2 C          64.2722   87.9150   14.4514 C.ar    1  UNL1        0.0365
      3 C          64.1821   89.3070   13.8999 C.ar    1  UNL1        0.0857
      4 C          63.4462   89.5595   12.6175 C.ar    1  UNL1        0.0989
      5 N          62.8003   88.4200   11.8866 N.ar    1  UNL1       -0.2906
      6 C          62.0137   88.3631   10.6106 C.ar    1  UNL1        0.0567
      7 C          61.6815   89.5287    9.7270 C.3     1  UNL1        0.0517
      8 C          61.6177   86.9358   10.3735 C.ar    1  UNL1        0.0730
      9 C          60.8199   86.4237    9.2110 C.3     1  UNL1        0.0534
     10 N          62.1595   86.1107   11.5029 N.ar    1  UNL1       -0.2299
     11 C          62.8904   87.0280   12.4380 C.ar    1  UNL1        0.1604
     12 N          64.8280   90.4466   14.6309 N.ar    1  UNL1       -0.2716
     13 C          66.1139   91.0299   14.1245 C.ar    1  UNL1        0.0830
     14 C          66.7597   92.1694   14.8554 C.ar    1  UNL1        0.0192
     15 C          66.1197   92.7258   16.0928 C.ar    1  UNL1        0.0064
     16 C          64.8339   92.1426   16.5991 C.ar    1  UNL1        0.0611
     17 C          64.1880   91.0030   15.8682 C.ar    1  UNL1        0.2649
     18 O          62.9021   90.4197   16.3745 O.2     1  UNL1       -0.2666
     19 N          63.7165   85.3834   14.2719 N.pl3   1  UNL1       -0.3266
     20 H          63.1498   85.1173   15.0317 H       1  UNL1        0.1472
     21 C          64.6700   84.3969   13.6657 C.3     1  UNL1        0.1174
     22 C          63.1376   82.4612   12.8567 C.ar    1  UNL1        0.1363
     23 C          62.6728   81.5410   11.7670 C.ar    1  UNL1        0.0366
     24 C          63.2756   81.6366   10.3968 C.ar    1  UNL1        0.0031
     25 C          64.3432   82.6522   10.1162 C.ar    1  UNL1       -0.0001
     26 C          64.8080   83.5723   11.2058 C.ar    1  UNL1        0.0004
     27 C          64.2052   83.4768   12.5761 C.ar    1  UNL1        0.0314
     28 C          61.4523   81.3644   14.5019 C.3     1  UNL1        0.2525
     29 O          62.5348   82.3656   14.2269 O.3     1  UNL1       -0.4717
@<TRIPOS>BOND
     1    28    29    1
     2    29    22    1
     3    22    23   ar
     4    23    24   ar
     5    24    25   ar
     6    25    26   ar
     7    26    27   ar
     8    27    21    1
     9    21    19    1
    10    19     1    1
    11     1     2   ar
    12     2     3   ar
    13     3    12    1
    14    12    13   ar
    15    13    14   ar
    16    14    15   ar
    17    15    16   ar
    18    16    17   ar
    19    17    18    2
    20     3     4   ar
    21     4     5   ar
    22     5     6   ar
    23     6     7    1
    24     6     8   ar
    25     8     9    1
    26     8    10   ar
    27    10    11   ar
    28    27    22   ar
    29    11     1   ar
    30    17    12   ar
    31    11     5   ar
    32    19    20    1
@<TRIPOS>MOLECULE
*****
 29 32 0 0 0
SMALL
GASTEIGER

@<TRIPOS>ATOM
      1 C          63.1831   86.4503   13.0903 C.ar    1  UNL1        0.0813
      2 C          62.3829   86.1127   11.8674 C.ar    1  UNL1        0.0365
      3 C          62.0399   87.1848   10.8760 C.ar    1  UNL1        0.0857
      4 C          62.4971   88.5945   11.1076 C.ar    1  UNL1        0.0989
      5 N          63.2973   88.9322   12.3305 N.ar    1  UNL1       -0.2906
      6 C          63.8818   90.2229   12.8228 C.ar    1  UNL1        0.0567
      7 C          63.7799   91.5543   12.1394 C.3     1  UNL1        0.0517
      8 C          64.5861   89.9485   14.1185 C.ar    1  UNL1        0.0730
      9 C          65.3121   90.9574   14.9583 C.3     1  UNL1        0.0534
     10 N          64.4369   88.4882   14.4270 N.ar    1  UNL1       -0.2299
     11 C          63.6403   87.8600   13.3219 C.ar    1  UNL1        0.1604
     12 N          61.2396   86.8472    9.6530 N.ar    1  UNL1       -0.2716
     13 C          59.8532   87.3959    9.4889 C.ar    1  UNL1        0.0830
     14 C          59.0529   87.0584    8.2659 C.ar    1  UNL1        0.0192
     15 C          59.6390   86.1721    7.2071 C.ar    1  UNL1        0.0064
     16 C          61.0254   85.6234    7.3712 C.ar    1  UNL1        0.0611
     17 C          61.8257   85.9610    8.5942 C.ar    1  UNL1        0.2649
     18 O          63.2120   85.4123    8.7584 O.2     1  UNL1       -0.2666
     19 N          63.5262   85.3782   14.0818 N.pl3   1  UNL1       -0.3266
     20 H          63.1353   85.3997   14.9851 H       1  UNL1        0.1472
     21 C          64.4648   84.2733   13.6969 C.3     1  UNL1        0.1174
     22 C          63.0405   82.2811   12.8294 C.ar    1  UNL1        0.1363
     23 C          62.6697   81.3311   11.7293 C.ar    1  UNL1        0.0366
     24 C          63.3524   81.4232   10.3969 C.ar    1  UNL1        0.0031
     25 C          64.4059   82.4654   10.1645 C.ar    1  UNL1       -0.0001
     26 C          64.7767   83.4154   11.2644 C.ar    1  UNL1        0.0004
     27 C          64.0940   83.3233   12.5969 C.ar    1  UNL1        0.0314
     28 C          61.2239   81.2269   14.3586 C.3     1  UNL1        0.2525
     29 O          62.3578   82.1890   14.1618 O.3     1  UNL1       -0.4717
@<TRIPOS>BOND
     1    28    29    1
     2    29    22    1
     3    22    23   ar
     4    23    24   ar
     5    24    25   ar
     6    25    26   ar
     7    26    27   ar
     8    27    21    1
     9    21    19    1
    10    19     1    1
    11     1     2   ar
    12     2     3   ar
    13     3    12    1
    14    12    13   ar
    15    13    14   ar
    16    14    15   ar
    17    15    16   ar
    18    16    17   ar
    19    17    18    2
    20     3     4   ar
    21     4     5   ar
    22     5     6   ar
    23     6     7    1
    24     6     8   ar
    25     8     9    1
    26     8    10   ar
    27    10    11   ar
    28    27    22   ar
    29    11     1   ar
    30    17    12   ar
    31    11     5   ar
    32    19    20    1
@<TRIPOS>MOLECULE
*****
 29 32 0 0 0
SMALL
GASTEIGER

@<TRIPOS>ATOM
      1 C          63.6588   88.9408   13.4696 C.ar    1  UNL1        0.0813
      2 C          62.7962   88.3032   12.4211 C.ar    1  UNL1        0.0365
      3 C          62.6108   88.9744   11.0926 C.ar    1  UNL1        0.0857
      4 C          63.2880   90.2832   10.8125 C.ar    1  UNL1        0.0989
      5 N          64.1506   90.9208   11.8609 N.ar    1  UNL1       -0.2906
      6 C          64.9388   92.1970   11.8724 C.ar    1  UNL1        0.0567
      7 C          65.0371   93.1826   10.7459 C.3     1  UNL1        0.0517
      8 C          65.6114   92.3145   13.2080 C.ar    1  UNL1        0.0730
      9 C          66.5004   93.4383   13.6516 C.3     1  UNL1        0.0534
     10 N          65.2388   91.1109   14.0220 N.ar    1  UNL1       -0.2299
     11 C          64.3360   90.2496   13.1895 C.ar    1  UNL1        0.1604
     12 N          61.7481   88.3368   10.0440 N.ar    1  UNL1       -0.2716
     13 C          62.1243   87.0014    9.4737 C.ar    1  UNL1        0.0830
     14 C          61.2617   86.3638    8.4252 C.ar    1  UNL1        0.0192
     15 C          60.0229   87.0616    7.9469 C.ar    1  UNL1        0.0064
     16 C          59.6468   88.3970    8.5173 C.ar    1  UNL1        0.0611
     17 C          60.5095   89.0346    9.5658 C.ar    1  UNL1        0.2649
     18 O          60.1334   90.3700   10.1361 O.2     1  UNL1       -0.2666
     19 N          63.8443   88.2696   14.7982 N.pl3   1  UNL1       -0.3266
     20 H          63.3857   88.6208   15.5954 H       1  UNL1        0.1472
     21 C          64.7285   87.0633   14.9121 C.3     1  UNL1        0.1174
     22 C          62.9313   85.3541   15.6858 C.ar    1  UNL1        0.1363
     23 C          62.3353   83.9789   15.6255 C.ar    1  UNL1        0.0366
     24 C          62.9405   82.9377   14.7313 C.ar    1  UNL1        0.0031
     25 C          64.1417   83.2717   13.8973 C.ar    1  UNL1       -0.0001
     26 C          64.7377   84.6469   13.9576 C.ar    1  UNL1        0.0004
     27 C          64.1325   85.6881   14.8518 C.ar    1  UNL1        0.0314
     28 C          62.7195   86.4626   18.0260 C.3     1  UNL1        0.2525
     29 O          62.3261   86.3953   16.5801 O.3     1  UNL1       -0.4717
@<TRIPOS>BOND
     1    28    29    1
     2    29    22    1
     3    22    23   ar
     4    23    24   ar
     5    24    25   ar
     6    25    26   ar
     7    26    27   ar
     8    27    21    1
     9    21    19    1
    10    19     1    1
    11     1     2   ar
    12     2     3   ar
    13     3    12    1
    14    12    13   ar
    15    13    14   ar
    16    14    15   ar
    17    15    16   ar
    18    16    17   ar
    19    17    18    2
    20     3     4   ar
    21     4     5   ar
    22     5     6   ar
    23     6     7    1
    24     6     8   ar
    25     8     9    1
    26     8    10   ar
    27    10    11   ar
    28    27    22   ar
    29    11     1   ar
    30    17    12   ar
    31    11     5   ar
    32    19    20    1
@<TRIPOS>MOLECULE
*****
 29 32 0 0 0
SMALL
GASTEIGER

@<TRIPOS>ATOM
      1 C          62.1637   88.4439   11.4215 C.ar    1  UNL1        0.0813
      2 C          62.6811   87.2111   12.1013 C.ar    1  UNL1        0.0365
      3 C          62.3850   85.8575   11.5268 C.ar    1  UNL1        0.0857
      4 C          61.5714   85.7368   10.2724 C.ar    1  UNL1        0.0989
      5 N          61.0539   86.9697    9.5925 N.ar    1  UNL1       -0.2906
      6 C          60.2316   87.1621    8.3529 C.ar    1  UNL1        0.0567
      7 C          59.7125   86.0732    7.4614 C.3     1  UNL1        0.0517
      8 C          60.0194   88.6347    8.1613 C.ar    1  UNL1        0.0730
      9 C          59.2509   89.2768    7.0445 C.3     1  UNL1        0.0534
     10 N          60.7107   89.3523    9.2825 N.ar    1  UNL1       -0.2299
     11 C          61.3501   88.3232   10.1671 C.ar    1  UNL1        0.1604
     12 N          62.9024   84.6246   12.2066 N.ar    1  UNL1       -0.2716
     13 C          62.6523   84.4143   13.6706 C.ar    1  UNL1        0.0830
     14 C          63.1697   83.1815   14.3504 C.ar    1  UNL1        0.0192
     15 C          63.9373   82.1587   13.5663 C.ar    1  UNL1        0.0064
     16 C          64.1875   82.3689   12.1023 C.ar    1  UNL1        0.0611
     17 C          63.6700   83.6019   11.4225 C.ar    1  UNL1        0.2649
     18 O          63.9202   83.8121    9.9585 O.2     1  UNL1       -0.2666
     19 N          62.4598   89.7976   11.9960 N.pl3   1  UNL1       -0.3266
     20 H          61.9774   90.1092   12.7956 H       1  UNL1        0.1472
     21 C          63.4909   90.6764   11.3522 C.3     1  UNL1        0.1174
     22 C          64.7482   90.9847   13.6047 C.ar    1  UNL1        0.1363
     23 C          65.7227   91.7446   14.4551 C.ar    1  UNL1        0.0366
     24 C          66.4144   92.9558   13.9032 C.ar    1  UNL1        0.0031
     25 C          66.1315   93.4072   12.5009 C.ar    1  UNL1       -0.0001
     26 C          65.1571   92.6474   11.6506 C.ar    1  UNL1        0.0004
     27 C          64.4654   91.4361   12.2025 C.ar    1  UNL1        0.0314
     28 C          63.5336   89.7839   15.5625 C.3     1  UNL1        0.2525
     29 O          64.0566   89.7736   14.1566 O.3     1  UNL1       -0.4717
@<TRIPOS>BOND
     1    28    29    1
     2    29    22    1
     3    22    23   ar
     4    23    24   ar
     5    24    25   ar
     6    25    26   ar
     7    26    27   ar
     8    27    21    1
     9    21    19    1
    10    19     1    1
    11     1     2   ar
    12     2     3   ar
    13     3    12    1
    14    12    13   ar
    15    13    14   ar
    16    14    15   ar
    17    15    16   ar
    18    16    17   ar
    19    17    18    2
    20     3     4   ar
    21     4     5   ar
    22     5     6   ar
    23     6     7    1
    24     6     8   ar
    25     8     9    1
    26     8    10   ar
    27    10    11   ar
    28    27    22   ar
    29    11     1   ar
    30    17    12   ar
    31    11     5   ar
    32    19    20    1
@<TRIPOS>MOLECULE
*****
 29 32 0 0 0
SMALL
GASTEIGER

@<TRIPOS>ATOM
      1 C          61.9651   88.9156   11.2943 C.ar    1  UNL1        0.0813
      2 C          62.5663   87.7797   12.0678 C.ar    1  UNL1        0.0365
      3 C          62.3885   86.3693   11.5891 C.ar    1  UNL1        0.0857
      4 C          61.6097   86.0949   10.3368 C.ar    1  UNL1        0.0989
      5 N          61.0086   87.2308    9.5634 N.ar    1  UNL1       -0.2906
      6 C          60.1959   87.2680    8.3031 C.ar    1  UNL1        0.0567
      7 C          59.7807   86.0803    7.4864 C.3     1  UNL1        0.0517
      8 C          59.8714   88.7014    8.0030 C.ar    1  UNL1        0.0730
      9 C          59.0746   89.1987    6.8334 C.3     1  UNL1        0.0534
     10 N          60.4834   89.5501    9.0777 N.ar    1  UNL1       -0.2299
     11 C          61.1863   88.6411   10.0421 C.ar    1  UNL1        0.1604
     12 N          62.9897   85.2334   12.3626 N.ar    1  UNL1       -0.2716
     13 C          62.8148   83.8232   11.8820 C.ar    1  UNL1        0.0830
     14 C          63.4159   82.6873   12.6554 C.ar    1  UNL1        0.0192
     15 C          64.1919   82.9614   13.9095 C.ar    1  UNL1        0.0064
     16 C          64.3669   84.3715   14.3901 C.ar    1  UNL1        0.0611
     17 C          63.7657   85.5075   13.6166 C.ar    1  UNL1        0.2649
     18 O          63.9406   86.9176   14.0972 O.2     1  UNL1       -0.2666
     19 N          62.1428   90.3261   11.7730 N.pl3   1  UNL1       -0.3266
     20 H          61.4719   90.7321   12.3682 H       1  UNL1        0.1472
     21 C          63.3427   91.1178   11.3448 C.3     1  UNL1        0.1174
     22 C          65.4110   92.5274   12.0413 C.ar    1  UNL1        0.1363
     23 C          66.4907   92.8480   13.0322 C.ar    1  UNL1        0.0366
     24 C          66.5816   92.0795   14.3171 C.ar    1  UNL1        0.0031
     25 C          65.5930   90.9905   14.6113 C.ar    1  UNL1       -0.0001
     26 C          64.5134   90.6699   13.6206 C.ar    1  UNL1        0.0004
     27 C          64.4223   91.4384   12.3355 C.ar    1  UNL1        0.0314
     28 C          65.8386   94.7016   10.6849 C.3     1  UNL1        0.2525
     29 O          65.3200   93.2959   10.7564 O.3     1  UNL1       -0.4717
@<TRIPOS>BOND
     1    28    29    1
     2    29    22    1
     3    22    23   ar
     4    23    24   ar
     5    24    25   ar
     6    25    26   ar
     7    26    27   ar
     8    27    21    1
     9    21    19    1
    10    19     1    1
    11     1     2   ar
    12     2     3   ar
    13     3    12    1
    14    12    13   ar
    15    13    14   ar
    16    14    15   ar
    17    15    16   ar
    18    16    17   ar
    19    17    18    2
    20     3     4   ar
    21     4     5   ar
    22     5     6   ar
    23     6     7    1
    24     6     8   ar
    25     8     9    1
    26     8    10   ar
    27    10    11   ar
    28    27    22   ar
    29    11     1   ar
    30    17    12   ar
    31    11     5   ar
    32    19    20    1
