@<TRIPOS>MOLECULE
*****
 28 31 0 0 0
SMALL
GASTEIGER

@<TRIPOS>ATOM
      1 C          62.9399   85.3441   11.9352 C.2     1  UNL1       -0.0246
      2 C          63.4552   86.1003   13.1237 C.2     1  UNL1       -0.0421
      3 C          63.7923   85.1061   14.1951 C.3     1  UNL1        0.0480
      4 C          63.4853   83.7354   13.6687 C.ar    1  UNL1       -0.0184
      5 C          63.6174   82.3724   14.2808 C.ar    1  UNL1       -0.0040
      6 C          63.2227   81.1565   13.4962 C.ar    1  UNL1       -0.0003
      7 C          62.6959   81.3036   12.0995 C.ar    1  UNL1       -0.0000
      8 C          62.5638   82.6666   11.4874 C.ar    1  UNL1       -0.0006
      9 C          62.9585   83.8825   12.2720 C.ar    1  UNL1       -0.0079
     10 C          62.8089   85.2612    9.3417 C.3     1  UNL1        0.0111
     11 C          62.4857   85.9441   10.6376 C.3     1  UNL1        0.0634
     12 C          61.7083   87.2268   10.6358 C.ar    1  UNL1        0.0818
     13 C          62.1390   88.3637    9.7572 C.ar    1  UNL1        0.1139
     14 N          61.3615   89.6465    9.7554 N.ar    1  UNL1       -0.2394
     15 C          60.1534   89.7925   10.6323 C.ar    1  UNL1        0.1195
     16 C          59.7226   88.6556   11.5110 C.ar    1  UNL1        0.1191
     17 N          60.5000   87.3728   11.5128 N.ar    1  UNL1       -0.2446
     18 C          63.6068   87.5893   13.2233 C.3     1  UNL1        0.0394
     19 C          64.2915   88.1956   14.4123 C.3     1  UNL1        0.0765
     20 N          63.7087   89.4080   15.0759 N.3     1  UNL1       -0.2712
     21 C          63.1790   89.3147   16.4762 C.3     1  UNL1        0.0896
     22 C          63.6556   90.7135   14.3393 C.3     1  UNL1        0.0723
     23 C          64.9164   91.3237   13.8026 C.3     1  UNL1        0.0210
     24 C          64.9201   91.9688   12.4485 C.3     1  UNL1        0.0335
     25 C          66.1809   92.5790   11.9118 C.3     1  UNL1        0.1422
     26 O          67.4381   92.5441   12.7293 O.3     1  UNL1       -0.3538
     27 C          67.4344   91.8990   14.0834 C.3     1  UNL1        0.1422
     28 C          66.1736   91.2888   14.6201 C.3     1  UNL1        0.0335
@<TRIPOS>BOND
     1    11    10    1
     2    11     1    1
     3     1     2    2
     4     2    18    1
     5    18    19    1
     6    19    20    1
     7    20    21    1
     8    20    22    1
     9    22    23    1
    10    23    24    1
    11    24    25    1
    12    25    26    1
    13    26    27    1
    14    27    28    1
    15     2     3    1
    16     3     4    1
    17     4     5   ar
    18     5     6   ar
    19     6     7   ar
    20     7     8   ar
    21     8     9   ar
    22    11    12    1
    23    12    13   ar
    24    13    14   ar
    25    14    15   ar
    26    15    16   ar
    27    16    17   ar
    28     9     1    1
    29    17    12   ar
    30    28    23    1
    31     9     4   ar
@<TRIPOS>MOLECULE
*****
 28 31 0 0 0
SMALL
GASTEIGER

@<TRIPOS>ATOM
      1 C          63.6610   88.9660   13.5018 C.2     1  UNL1       -0.0246
      2 C          63.9135   87.4959   13.6602 C.2     1  UNL1       -0.0421
      3 C          63.2930   86.7905   12.4908 C.3     1  UNL1        0.0480
      4 C          62.6570   87.8245   11.6098 C.ar    1  UNL1       -0.0184
      5 C          61.9002   87.7155   10.3194 C.ar    1  UNL1       -0.0040
      6 C          61.3708   88.9510    9.6538 C.ar    1  UNL1       -0.0003
      7 C          61.5982   90.2956   10.2786 C.ar    1  UNL1       -0.0000
      8 C          62.3550   90.4046   11.5690 C.ar    1  UNL1       -0.0006
      9 C          62.8844   89.1691   12.2346 C.ar    1  UNL1       -0.0079
     10 C          63.5554   90.0956   15.8391 C.3     1  UNL1        0.0111
     11 C          64.1068   90.0438   14.4450 C.3     1  UNL1        0.0634
     12 C          65.1038   91.0697   13.9943 C.ar    1  UNL1        0.0818
     13 C          66.4796   91.0916   14.5916 C.ar    1  UNL1        0.1139
     14 N          67.4767   92.1176   14.1408 N.ar    1  UNL1       -0.2394
     15 C          67.0980   93.1217   13.0928 C.ar    1  UNL1        0.1195
     16 C          65.7222   93.0998   12.4955 C.ar    1  UNL1        0.1191
     17 N          64.7252   92.0739   12.9462 N.ar    1  UNL1       -0.2446
     18 C          64.6562   86.8455   14.7895 C.3     1  UNL1        0.0394
     19 C          63.9267   85.9585   15.7545 C.3     1  UNL1        0.0765
     20 N          63.4071   84.6259   15.3026 N.3     1  UNL1       -0.2712
     21 C          61.9500   84.3005   15.4485 C.3     1  UNL1        0.0896
     22 C          64.3443   83.6188   14.7050 C.3     1  UNL1        0.0723
     23 C          63.9403   82.8523   13.4806 C.3     1  UNL1        0.0210
     24 C          63.2726   81.5162   13.6186 C.3     1  UNL1        0.0335
     25 C          62.8686   80.7496   12.3942 C.3     1  UNL1        0.1422
     26 O          63.1321   81.3192   11.0319 O.3     1  UNL1       -0.3538
     27 C          63.7997   82.6553   10.8939 C.3     1  UNL1        0.1422
     28 C          64.2038   83.4218   12.1182 C.3     1  UNL1        0.0335
@<TRIPOS>BOND
     1    11    10    1
     2    11     1    1
     3     1     2    2
     4     2    18    1
     5    18    19    1
     6    19    20    1
     7    20    21    1
     8    20    22    1
     9    22    23    1
    10    23    24    1
    11    24    25    1
    12    25    26    1
    13    26    27    1
    14    27    28    1
    15     2     3    1
    16     3     4    1
    17     4     5   ar
    18     5     6   ar
    19     6     7   ar
    20     7     8   ar
    21     8     9   ar
    22    11    12    1
    23    12    13   ar
    24    13    14   ar
    25    14    15   ar
    26    15    16   ar
    27    16    17   ar
    28     9     1    1
    29    17    12   ar
    30    28    23    1
    31     9     4   ar
@<TRIPOS>MOLECULE
*****
 28 31 0 0 0
SMALL
GASTEIGER

@<TRIPOS>ATOM
      1 C          63.7965   90.5972   13.7107 C.2     1  UNL1       -0.0246
      2 C          62.8107   90.3218   12.6143 C.2     1  UNL1       -0.0421
      3 C          63.2961   91.0073   11.3715 C.3     1  UNL1        0.0480
      4 C          64.5820   91.7064   11.6999 C.ar    1  UNL1       -0.0184
      5 C          65.5112   92.5410   10.8693 C.ar    1  UNL1       -0.0040
      6 C          66.7497   93.1222   11.4845 C.ar    1  UNL1       -0.0003
      7 C          67.0589   92.8687   12.9302 C.ar    1  UNL1       -0.0000
      8 C          66.1297   92.0341   13.7608 C.ar    1  UNL1       -0.0006
      9 C          64.8913   91.4529   13.1457 C.ar    1  UNL1       -0.0079
     10 C          63.6197   91.0834   16.2568 C.3     1  UNL1        0.0111
     11 C          63.7039   90.1036   15.1241 C.3     1  UNL1        0.0634
     12 C          63.6956   88.6302   15.4050 C.ar    1  UNL1        0.0818
     13 C          63.1148   88.1145   16.6883 C.ar    1  UNL1        0.1139
     14 N          63.1065   86.6410   16.9691 N.ar    1  UNL1       -0.2394
     15 C          63.6790   85.6832   15.9667 C.ar    1  UNL1        0.1195
     16 C          64.2598   86.1988   14.6834 C.ar    1  UNL1        0.1191
     17 N          64.2681   87.6723   14.4026 N.ar    1  UNL1       -0.2446
     18 C          61.5591   89.5044   12.7387 C.3     1  UNL1        0.0394
     19 C          60.4342   89.7025   11.7665 C.3     1  UNL1        0.0765
     20 N          60.4105   88.9321   10.4797 N.3     1  UNL1       -0.2712
     21 C          60.6790   89.6330    9.1809 C.3     1  UNL1        0.0896
     22 C          60.1182   87.4610   10.4916 C.3     1  UNL1        0.0723
     23 C          61.2270   86.4743   10.2744 C.3     1  UNL1        0.0210
     24 C          61.7633   85.6825   11.4299 C.3     1  UNL1        0.0335
     25 C          62.8721   84.6958   11.2128 C.3     1  UNL1        0.1422
     26 O          63.4445   84.5009    9.8401 O.3     1  UNL1       -0.3538
     27 C          62.9081   85.2927    8.6846 C.3     1  UNL1        0.1422
     28 C          61.7994   86.2794    8.9017 C.3     1  UNL1        0.0335
@<TRIPOS>BOND
     1    11    10    1
     2    11     1    1
     3     1     2    2
     4     2    18    1
     5    18    19    1
     6    19    20    1
     7    20    21    1
     8    20    22    1
     9    22    23    1
    10    23    24    1
    11    24    25    1
    12    25    26    1
    13    26    27    1
    14    27    28    1
    15     2     3    1
    16     3     4    1
    17     4     5   ar
    18     5     6   ar
    19     6     7   ar
    20     7     8   ar
    21     8     9   ar
    22    11    12    1
    23    12    13   ar
    24    13    14   ar
    25    14    15   ar
    26    15    16   ar
    27    16    17   ar
    28     9     1    1
    29    17    12   ar
    30    28    23    1
    31     9     4   ar
@<TRIPOS>MOLECULE
*****
 28 31 0 0 0
SMALL
GASTEIGER

@<TRIPOS>ATOM
      1 C          64.7570   91.6605   12.5755 C.2     1  UNL1       -0.0246
      2 C          63.9356   90.5866   13.2251 C.2     1  UNL1       -0.0421
      3 C          64.3241   90.5174   14.6722 C.3     1  UNL1        0.0480
      4 C          65.3856   91.5486   14.9171 C.ar    1  UNL1       -0.0184
      5 C          66.1430   91.9355   16.1526 C.ar    1  UNL1       -0.0040
      6 C          67.1681   93.0289   16.0922 C.ar    1  UNL1       -0.0003
      7 C          67.4357   93.7353   14.7963 C.ar    1  UNL1       -0.0000
      8 C          66.6782   93.3484   13.5608 C.ar    1  UNL1       -0.0006
      9 C          65.6532   92.2550   13.6212 C.ar    1  UNL1       -0.0079
     10 C          63.5821   91.5659   10.2601 C.3     1  UNL1        0.0111
     11 C          64.6935   92.0683   11.1334 C.3     1  UNL1        0.0634
     12 C          65.7413   92.9784   10.5645 C.ar    1  UNL1        0.0818
     13 C          67.0815   92.4284   10.1753 C.ar    1  UNL1        0.1139
     14 N          68.1293   93.3386    9.6064 N.ar    1  UNL1       -0.2394
     15 C          67.8369   94.7987    9.4265 C.ar    1  UNL1        0.1195
     16 C          66.4968   95.3488    9.8157 C.ar    1  UNL1        0.1191
     17 N          65.4490   94.4386   10.3846 N.ar    1  UNL1       -0.2446
     18 C          62.9064   89.7319   12.5466 C.3     1  UNL1        0.0394
     19 C          63.1868   88.2806   12.2914 C.3     1  UNL1        0.0765
     20 N          62.3583   87.5199   11.2989 N.3     1  UNL1       -0.2712
     21 C          62.0088   88.1427    9.9798 C.3     1  UNL1        0.0896
     22 C          61.8794   86.1365   11.6255 C.3     1  UNL1        0.0723
     23 C          62.8241   84.9749   11.5349 C.3     1  UNL1        0.0210
     24 C          63.4601   84.4267   12.7779 C.3     1  UNL1        0.0335
     25 C          64.4048   83.2651   12.6873 C.3     1  UNL1        0.1422
     26 O          64.7134   82.6516   11.3538 O.3     1  UNL1       -0.3538
     27 C          64.0774   83.1997   10.1108 C.3     1  UNL1        0.1422
     28 C          63.1327   84.3614   10.2014 C.3     1  UNL1        0.0335
@<TRIPOS>BOND
     1    11    10    1
     2    11     1    1
     3     1     2    2
     4     2    18    1
     5    18    19    1
     6    19    20    1
     7    20    21    1
     8    20    22    1
     9    22    23    1
    10    23    24    1
    11    24    25    1
    12    25    26    1
    13    26    27    1
    14    27    28    1
    15     2     3    1
    16     3     4    1
    17     4     5   ar
    18     5     6   ar
    19     6     7   ar
    20     7     8   ar
    21     8     9   ar
    22    11    12    1
    23    12    13   ar
    24    13    14   ar
    25    14    15   ar
    26    15    16   ar
    27    16    17   ar
    28     9     1    1
    29    17    12   ar
    30    28    23    1
    31     9     4   ar
@<TRIPOS>MOLECULE
*****
 28 31 0 0 0
SMALL
GASTEIGER

@<TRIPOS>ATOM
      1 C          63.3539   87.4375   12.8037 C.2     1  UNL1       -0.0246
      2 C          63.5152   88.9275   12.7434 C.2     1  UNL1       -0.0421
      3 C          62.8269   89.4184   11.5044 C.3     1  UNL1        0.0480
      4 C          62.2402   88.2318   10.7989 C.ar    1  UNL1       -0.0184
      5 C          61.4516   88.1079    9.5291 C.ar    1  UNL1       -0.0040
      6 C          60.9886   86.7596    9.0623 C.ar    1  UNL1       -0.0003
      7 C          61.3143   85.5353    9.8654 C.ar    1  UNL1       -0.0000
      8 C          62.1030   85.6592   11.1352 C.ar    1  UNL1       -0.0006
      9 C          62.5660   87.0074   11.6020 C.ar    1  UNL1       -0.0079
     10 C          64.7105   87.1050   14.9946 C.3     1  UNL1        0.0111
     11 C          63.8870   86.5357   13.8774 C.3     1  UNL1        0.0634
     12 C          63.5968   85.0648   13.8339 C.ar    1  UNL1        0.0818
     13 C          64.5188   84.1398   13.0961 C.ar    1  UNL1        0.1139
     14 N          64.2285   82.6688   13.0527 N.ar    1  UNL1       -0.2394
     15 C          63.0162   82.1227   13.7470 C.ar    1  UNL1        0.1195
     16 C          62.0941   83.0476   14.4848 C.ar    1  UNL1        0.1191
     17 N          62.3844   84.5186   14.5282 N.ar    1  UNL1       -0.2446
     18 C          64.2379   89.7775   13.7461 C.3     1  UNL1        0.0394
     19 C          64.0825   91.2691   13.7157 C.3     1  UNL1        0.0765
     20 N          65.1120   92.1165   13.0286 N.3     1  UNL1       -0.2712
     21 C          66.2136   92.7512   13.8247 C.3     1  UNL1        0.0896
     22 C          65.0399   92.3293   11.5456 C.3     1  UNL1        0.0723
     23 C          66.1663   93.0149   10.8306 C.3     1  UNL1        0.0210
     24 C          66.1037   94.4916   10.5745 C.3     1  UNL1        0.0335
     25 C          67.2301   95.1772    9.8596 C.3     1  UNL1        0.1422
     26 O          68.4191   94.3861    9.4007 O.3     1  UNL1       -0.3538
     27 C          68.4816   92.9095    9.6568 C.3     1  UNL1        0.1422
     28 C          67.3552   92.2239   10.3718 C.3     1  UNL1        0.0335
@<TRIPOS>BOND
     1    11    10    1
     2    11     1    1
     3     1     2    2
     4     2    18    1
     5    18    19    1
     6    19    20    1
     7    20    21    1
     8    20    22    1
     9    22    23    1
    10    23    24    1
    11    24    25    1
    12    25    26    1
    13    26    27    1
    14    27    28    1
    15     2     3    1
    16     3     4    1
    17     4     5   ar
    18     5     6   ar
    19     6     7   ar
    20     7     8   ar
    21     8     9   ar
    22    11    12    1
    23    12    13   ar
    24    13    14   ar
    25    14    15   ar
    26    15    16   ar
    27    16    17   ar
    28     9     1    1
    29    17    12   ar
    30    28    23    1
    31     9     4   ar
@<TRIPOS>MOLECULE
*****
 28 31 0 0 0
SMALL
GASTEIGER

@<TRIPOS>ATOM
      1 C          61.4628   88.2143   10.8202 C.2     1  UNL1       -0.0246
      2 C          62.2467   86.9925   11.1978 C.2     1  UNL1       -0.0421
      3 C          62.0145   85.9493   10.1453 C.3     1  UNL1        0.0480
      4 C          61.0872   86.5264    9.1172 C.ar    1  UNL1       -0.0184
      5 C          60.5092   85.9581    7.8551 C.ar    1  UNL1       -0.0040
      6 C          59.5902   86.7896    7.0102 C.ar    1  UNL1       -0.0003
      7 C          59.2492   88.1895    7.4273 C.ar    1  UNL1       -0.0000
      8 C          59.8272   88.7579    8.6894 C.ar    1  UNL1       -0.0006
      9 C          60.7462   87.9263    9.5343 C.ar    1  UNL1       -0.0079
     10 C          60.1275   89.9184   12.2567 C.3     1  UNL1        0.0111
     11 C          61.4055   89.4988   11.5929 C.3     1  UNL1        0.0634
     12 C          62.6262   90.3636   11.7018 C.ar    1  UNL1        0.0818
     13 C          63.3529   90.4741   13.0093 C.ar    1  UNL1        0.1139
     14 N          64.5736   91.3390   13.1181 N.ar    1  UNL1       -0.2394
     15 C          65.0677   92.0934   11.9195 C.ar    1  UNL1        0.1195
     16 C          64.3410   91.9829   10.6119 C.ar    1  UNL1        0.1191
     17 N          63.1203   91.1180   10.5031 N.ar    1  UNL1       -0.2446
     18 C          63.1110   86.8405   12.4143 C.3     1  UNL1        0.0394
     19 C          63.0114   85.6024   13.2552 C.3     1  UNL1        0.0765
     20 N          64.1896   85.1493   14.0655 N.3     1  UNL1       -0.2712
     21 C          64.8692   86.1055   15.0003 C.3     1  UNL1        0.0896
     22 C          64.6881   83.7401   13.9410 C.3     1  UNL1        0.0723
     23 C          64.1618   82.8517   12.8530 C.3     1  UNL1        0.0210
     24 C          64.4635   83.1647   11.4174 C.3     1  UNL1        0.0335
     25 C          63.9371   82.2763   10.3294 C.3     1  UNL1        0.1422
     26 O          63.1090   81.0749   10.6770 O.3     1  UNL1       -0.3538
     27 C          62.8073   80.7619   12.1126 C.3     1  UNL1        0.1422
     28 C          63.3337   81.6503   13.2006 C.3     1  UNL1        0.0335
@<TRIPOS>BOND
     1    11    10    1
     2    11     1    1
     3     1     2    2
     4     2    18    1
     5    18    19    1
     6    19    20    1
     7    20    21    1
     8    20    22    1
     9    22    23    1
    10    23    24    1
    11    24    25    1
    12    25    26    1
    13    26    27    1
    14    27    28    1
    15     2     3    1
    16     3     4    1
    17     4     5   ar
    18     5     6   ar
    19     6     7   ar
    20     7     8   ar
    21     8     9   ar
    22    11    12    1
    23    12    13   ar
    24    13    14   ar
    25    14    15   ar
    26    15    16   ar
    27    16    17   ar
    28     9     1    1
    29    17    12   ar
    30    28    23    1
    31     9     4   ar
@<TRIPOS>MOLECULE
*****
 28 31 0 0 0
SMALL
GASTEIGER

@<TRIPOS>ATOM
      1 C          64.0851   90.4816   14.3851 C.2     1  UNL1       -0.0246
      2 C          63.5764   90.4177   12.9754 C.2     1  UNL1       -0.0421
      3 C          64.3639   91.3947   12.1537 C.3     1  UNL1        0.0480
      4 C          65.3594   92.0625   13.0555 C.ar    1  UNL1       -0.0184
      5 C          66.4004   93.1114   12.7991 C.ar    1  UNL1       -0.0040
      6 C          67.2691   93.5961   13.9218 C.ar    1  UNL1       -0.0003
      7 C          67.0968   93.0318   15.3008 C.ar    1  UNL1       -0.0000
      8 C          66.0557   91.9828   15.5573 C.ar    1  UNL1       -0.0006
      9 C          65.1870   91.4981   14.4346 C.ar    1  UNL1       -0.0079
     10 C          62.9148   90.3524   16.7012 C.3     1  UNL1        0.0111
     11 C          63.5804   89.6713   15.5421 C.3     1  UNL1        0.0634
     12 C          63.7413   88.1800   15.5403 C.ar    1  UNL1        0.0818
     13 C          64.5419   87.5133   14.4611 C.ar    1  UNL1        0.1139
     14 N          64.7028   86.0220   14.4593 N.ar    1  UNL1       -0.2394
     15 C          64.0630   85.1973   15.5366 C.ar    1  UNL1        0.1195
     16 C          63.2624   85.8639   16.6158 C.ar    1  UNL1        0.1191
     17 N          63.1016   87.3553   16.6176 N.ar    1  UNL1       -0.2446
     18 C          62.4737   89.5322   12.4753 C.3     1  UNL1        0.0394
     19 C          62.5376   88.9658   11.0878 C.3     1  UNL1        0.0765
     20 N          61.4575   88.0446   10.6034 N.3     1  UNL1       -0.2712
     21 C          60.0425   88.2422   11.0602 C.3     1  UNL1        0.0896
     22 C          61.7925   86.9257    9.6621 C.3     1  UNL1        0.0723
     23 C          62.3929   85.6563   10.1895 C.3     1  UNL1        0.0210
     24 C          63.2057   84.7786    9.2845 C.3     1  UNL1        0.0335
     25 C          63.8061   83.5092    9.8119 C.3     1  UNL1        0.1422
     26 O          63.5937   83.1175   11.2442 O.3     1  UNL1       -0.3538
     27 C          62.7810   83.9952   12.1491 C.3     1  UNL1        0.1422
     28 C          62.1805   85.2646   11.6217 C.3     1  UNL1        0.0335
@<TRIPOS>BOND
     1    11    10    1
     2    11     1    1
     3     1     2    2
     4     2    18    1
     5    18    19    1
     6    19    20    1
     7    20    21    1
     8    20    22    1
     9    22    23    1
    10    23    24    1
    11    24    25    1
    12    25    26    1
    13    26    27    1
    14    27    28    1
    15     2     3    1
    16     3     4    1
    17     4     5   ar
    18     5     6   ar
    19     6     7   ar
    20     7     8   ar
    21     8     9   ar
    22    11    12    1
    23    12    13   ar
    24    13    14   ar
    25    14    15   ar
    26    15    16   ar
    27    16    17   ar
    28     9     1    1
    29    17    12   ar
    30    28    23    1
    31     9     4   ar
@<TRIPOS>MOLECULE
*****
 28 31 0 0 0
SMALL
GASTEIGER

@<TRIPOS>ATOM
      1 C          64.8438   91.7078   12.3874 C.2     1  UNL1       -0.0246
      2 C          64.0664   90.5562   12.9527 C.2     1  UNL1       -0.0421
      3 C          64.4250   90.4223   14.4030 C.3     1  UNL1        0.0480
      4 C          65.4241   91.4911   14.7341 C.ar    1  UNL1       -0.0184
      5 C          66.1316   91.8435   16.0089 C.ar    1  UNL1       -0.0040
      6 C          67.0979   92.9903   16.0381 C.ar    1  UNL1       -0.0003
      7 C          67.3567   93.7848   14.7924 C.ar    1  UNL1       -0.0000
      8 C          66.6492   93.4325   13.5175 C.ar    1  UNL1       -0.0006
      9 C          65.6829   92.2856   13.4884 C.ar    1  UNL1       -0.0079
     10 C          63.7162   91.7042   10.0467 C.3     1  UNL1        0.0111
     11 C          64.7913   92.1959   10.9701 C.3     1  UNL1        0.0634
     12 C          65.8138   93.1758   10.4759 C.ar    1  UNL1        0.0818
     13 C          67.1543   92.6901   10.0097 C.ar    1  UNL1        0.1139
     14 N          68.1767   93.6700    9.5155 N.ar    1  UNL1       -0.2394
     15 C          67.8589   95.1357    9.4875 C.ar    1  UNL1        0.1195
     16 C          66.5185   95.6215    9.9538 C.ar    1  UNL1        0.1191
     17 N          65.4960   94.6415   10.4479 N.ar    1  UNL1       -0.2446
     18 C          63.1000   89.6906   12.1998 C.3     1  UNL1        0.0394
     19 C          61.6363   89.7438   12.5232 C.3     1  UNL1        0.0765
     20 N          60.6312   89.9199   11.4238 N.3     1  UNL1       -0.2712
     21 C          59.2063   90.2508   11.7561 C.3     1  UNL1        0.0896
     22 C          61.0509   89.7651    9.9920 C.3     1  UNL1        0.0723
     23 C          60.8930   88.4422    9.3030 C.3     1  UNL1        0.0210
     24 C          59.7080   88.1946    8.4172 C.3     1  UNL1        0.0335
     25 C          59.5501   86.8717    7.7281 C.3     1  UNL1        0.1422
     26 O          60.5771   85.7963    7.9248 O.3     1  UNL1       -0.3538
     27 C          61.7620   86.0438    8.8106 C.3     1  UNL1        0.1422
     28 C          61.9200   87.3668    9.4997 C.3     1  UNL1        0.0335
@<TRIPOS>BOND
     1    11    10    1
     2    11     1    1
     3     1     2    2
     4     2    18    1
     5    18    19    1
     6    19    20    1
     7    20    21    1
     8    20    22    1
     9    22    23    1
    10    23    24    1
    11    24    25    1
    12    25    26    1
    13    26    27    1
    14    27    28    1
    15     2     3    1
    16     3     4    1
    17     4     5   ar
    18     5     6   ar
    19     6     7   ar
    20     7     8   ar
    21     8     9   ar
    22    11    12    1
    23    12    13   ar
    24    13    14   ar
    25    14    15   ar
    26    15    16   ar
    27    16    17   ar
    28     9     1    1
    29    17    12   ar
    30    28    23    1
    31     9     4   ar
@<TRIPOS>MOLECULE
*****
 28 31 0 0 0
SMALL
GASTEIGER

@<TRIPOS>ATOM
      1 C          61.3510   88.1077   10.7188 C.2     1  UNL1       -0.0246
      2 C          62.0621   86.8212   11.0175 C.2     1  UNL1       -0.0421
      3 C          61.7910   85.8694    9.8904 C.3     1  UNL1        0.0480
      4 C          60.9124   86.5676    8.8951 C.ar    1  UNL1       -0.0184
      5 C          60.3249   86.1224    7.5887 C.ar    1  UNL1       -0.0040
      6 C          59.4655   87.0606    6.7944 C.ar    1  UNL1       -0.0003
      7 C          59.1935   88.4440    7.3064 C.ar    1  UNL1       -0.0000
      8 C          59.7810   88.8892    8.6128 C.ar    1  UNL1       -0.0006
      9 C          60.6405   87.9510    9.4071 C.ar    1  UNL1       -0.0079
     10 C          60.1500   89.6634   12.4182 C.3     1  UNL1        0.0111
     11 C          61.3504   89.3355   11.5806 C.3     1  UNL1        0.0634
     12 C          62.5502   90.2354   11.6048 C.ar    1  UNL1        0.0818
     13 C          63.3345   90.4058   12.8720 C.ar    1  UNL1        0.1139
     14 N          64.5343   91.3057   12.8962 N.ar    1  UNL1       -0.2394
     15 C          64.9499   92.0352   11.6532 C.ar    1  UNL1        0.1195
     16 C          64.1656   91.8648   10.3859 C.ar    1  UNL1        0.1191
     17 N          62.9658   90.9649   10.3617 N.ar    1  UNL1       -0.2446
     18 C          62.8975   86.5366   12.2304 C.3     1  UNL1        0.0394
     19 C          62.7999   85.2042   12.9125 C.3     1  UNL1        0.0765
     20 N          64.0347   84.5463   13.4533 N.3     1  UNL1       -0.2712
     21 C          64.4737   83.2171   12.9142 C.3     1  UNL1        0.0896
     22 C          64.8304   85.2175   14.5332 C.3     1  UNL1        0.0723
     23 C          64.1776   86.2306   15.4262 C.3     1  UNL1        0.0210
     24 C          63.4043   85.7815   16.6304 C.3     1  UNL1        0.0335
     25 C          62.7516   86.7946   17.5234 C.3     1  UNL1        0.1422
     26 O          62.8722   88.2570   17.2122 O.3     1  UNL1       -0.3538
     27 C          63.6455   88.7062   16.0080 C.3     1  UNL1        0.1422
     28 C          64.2982   87.6930   15.1150 C.3     1  UNL1        0.0335
@<TRIPOS>BOND
     1    11    10    1
     2    11     1    1
     3     1     2    2
     4     2    18    1
     5    18    19    1
     6    19    20    1
     7    20    21    1
     8    20    22    1
     9    22    23    1
    10    23    24    1
    11    24    25    1
    12    25    26    1
    13    26    27    1
    14    27    28    1
    15     2     3    1
    16     3     4    1
    17     4     5   ar
    18     5     6   ar
    19     6     7   ar
    20     7     8   ar
    21     8     9   ar
    22    11    12    1
    23    12    13   ar
    24    13    14   ar
    25    14    15   ar
    26    15    16   ar
    27    16    17   ar
    28     9     1    1
    29    17    12   ar
    30    28    23    1
    31     9     4   ar
