@<TRIPOS>MOLECULE
*****
 28 31 0 0 0
SMALL
GASTEIGER

@<TRIPOS>ATOM
      1 C          63.8417   86.0059   15.7988 C.ar    1  UNL1        0.1287
      2 C          64.4732   86.7852   14.6835 C.ar    1  UNL1        0.0338
      3 C          64.4012   88.2834   14.6811 C.ar    1  UNL1        0.0005
      4 C          63.6978   89.0024   15.7938 C.ar    1  UNL1        0.0015
      5 C          63.0663   88.2231   16.9091 C.ar    1  UNL1        0.0963
      6 N          63.1382   86.7248   16.9116 N.ar    1  UNL1       -0.2297
      7 N          63.9136   84.5076   15.8013 N.pl3   1  UNL1       -0.3144
      8 H          64.7247   84.0543   16.1266 H       1  UNL1        0.1485
      9 C          62.7496   83.7000   15.3082 C.3     1  UNL1        0.1169
     10 F          63.1198   80.7904   10.0740 F       1  UNL1       -0.1832
     11 C          63.0273   81.5179   11.3826 C.ar    1  UNL1        0.2223
     12 C          63.2925   82.9931   11.4410 C.ar    1  UNL1        0.0494
     13 C          63.1999   83.7204   12.7496 C.ar    1  UNL1        0.0029
     14 C          62.8422   82.9726   13.9997 C.ar    1  UNL1        0.0167
     15 C          62.5770   81.4974   13.9412 C.ar    1  UNL1        0.0986
     16 N          62.6696   80.7700   12.6327 N.ar    1  UNL1       -0.2167
     17 C          63.6259   90.5007   15.7914 C.3     1  UNL1        0.0559
     18 C          64.6255   91.2983   15.0072 C.ar    1  UNL1        0.0043
     19 C          65.8296   91.9968   15.5660 C.ar    1  UNL1        0.0966
     20 N          66.5446   92.6675   14.4307 N.ar    1  UNL1       -0.2273
     21 C          65.7825   92.3835   13.1703 C.ar    1  UNL1        0.1403
     22 N          66.0153   92.7862   11.7443 N.ar    1  UNL1       -0.3367
     23 C          65.0620   92.3426   10.6746 C.ar    1  UNL1        0.0850
     24 C          63.8758   91.4963   11.0309 C.ar    1  UNL1        0.0747
     25 CL         62.9225   91.0527    9.9611 Cl      1  UNL1       -0.0807
     26 C          63.6430   91.0937   12.4569 C.ar    1  UNL1        0.0156
     27 C          64.5963   91.5373   13.5267 C.ar    1  UNL1        0.0327
     28 H          66.7938   93.3416   11.5105 H       1  UNL1        0.1674
@<TRIPOS>BOND
     1    10    11    1
     2    11    12   ar
     3    12    13   ar
     4    13    14   ar
     5    14     9    1
     6     9     7    1
     7     7     1    1
     8     1     2   ar
     9     2     3   ar
    10     3     4   ar
    11     4    17    1
    12    17    18    1
    13    18    19   ar
    14    19    20   ar
    15    20    21   ar
    16    21    22   ar
    17    22    23   ar
    18    23    24   ar
    19    24    25    1
    20    24    26   ar
    21    26    27   ar
    22     4     5   ar
    23     5     6   ar
    24    14    15   ar
    25    15    16   ar
    26    16    11   ar
    27     6     1   ar
    28    27    18   ar
    29    27    21    1
    30     7     8    1
    31    22    28    1
@<TRIPOS>MOLECULE
*****
 28 31 0 0 0
SMALL
GASTEIGER

@<TRIPOS>ATOM
      1 C          61.9207   89.3160   11.3836 C.ar    1  UNL1        0.1287
      2 C          62.8295   89.6740   12.5220 C.ar    1  UNL1        0.0338
      3 C          63.8184   90.7914   12.3692 C.ar    1  UNL1        0.0005
      4 C          63.8986   91.5508   11.0781 C.ar    1  UNL1        0.0015
      5 C          62.9897   91.1928    9.9397 C.ar    1  UNL1        0.0963
      6 N          62.0008   90.0754   10.0925 N.ar    1  UNL1       -0.2297
      7 N          60.9317   88.1986   11.5363 N.pl3   1  UNL1       -0.3144
      8 H          60.8571   87.7210   12.3940 H       1  UNL1        0.1485
      9 C          60.0564   87.8086   10.3822 C.3     1  UNL1        0.1169
     10 F          62.2011   84.2395    6.0624 F       1  UNL1       -0.1832
     11 C          61.6649   85.1318    7.1424 C.ar    1  UNL1        0.2223
     12 C          62.5553   85.5629    8.2699 C.ar    1  UNL1        0.0494
     13 C          62.0191   86.4552    9.3498 C.ar    1  UNL1        0.0029
     14 C          60.5925   86.9164    9.3022 C.ar    1  UNL1        0.0167
     15 C          59.7022   86.4852    8.1747 C.ar    1  UNL1        0.0986
     16 N          60.2384   85.5929    7.0948 N.ar    1  UNL1       -0.2167
     17 C          64.8876   92.6683   10.9254 C.3     1  UNL1        0.0559
     18 C          66.3326   92.4415   11.2576 C.ar    1  UNL1        0.0043
     19 C          67.4369   92.2014   10.2712 C.ar    1  UNL1        0.0966
     20 N          68.7138   92.0266   11.0385 N.ar    1  UNL1       -0.2273
     21 C          68.3988   92.1585   12.4991 C.ar    1  UNL1        0.1403
     22 N          69.2619   92.0783   13.7232 N.ar    1  UNL1       -0.3367
     23 C          68.6533   92.2546   15.0828 C.ar    1  UNL1        0.0850
     24 C          67.1816   92.5110   15.2182 C.ar    1  UNL1        0.0747
     25 CL         66.5730   92.6873   16.5779 Cl      1  UNL1       -0.0807
     26 C          66.3185   92.5913   13.9941 C.ar    1  UNL1        0.0156
     27 C          66.9271   92.4150   12.6345 C.ar    1  UNL1        0.0327
     28 H          70.2278   91.9100   13.6343 H       1  UNL1        0.1674
@<TRIPOS>BOND
     1    10    11    1
     2    11    12   ar
     3    12    13   ar
     4    13    14   ar
     5    14     9    1
     6     9     7    1
     7     7     1    1
     8     1     2   ar
     9     2     3   ar
    10     3     4   ar
    11     4    17    1
    12    17    18    1
    13    18    19   ar
    14    19    20   ar
    15    20    21   ar
    16    21    22   ar
    17    22    23   ar
    18    23    24   ar
    19    24    25    1
    20    24    26   ar
    21    26    27   ar
    22     4     5   ar
    23     5     6   ar
    24    14    15   ar
    25    15    16   ar
    26    16    11   ar
    27     6     1   ar
    28    27    18   ar
    29    27    21    1
    30     7     8    1
    31    22    28    1
@<TRIPOS>MOLECULE
*****
 28 31 0 0 0
SMALL
GASTEIGER

@<TRIPOS>ATOM
      1 C          64.0350   84.9639   15.6445 C.ar    1  UNL1        0.1287
      2 C          64.7391   85.8234   14.6367 C.ar    1  UNL1        0.0338
      3 C          64.5788   87.3141   14.6799 C.ar    1  UNL1        0.0005
      4 C          63.7145   87.9455   15.7307 C.ar    1  UNL1        0.0015
      5 C          63.0104   87.0860   16.7385 C.ar    1  UNL1        0.0963
      6 N          63.1706   85.5953   16.6954 N.ar    1  UNL1       -0.2297
      7 N          64.1952   83.4732   15.6014 N.pl3   1  UNL1       -0.3144
      8 H          64.8087   83.0257   16.2280 H       1  UNL1        0.1485
      9 C          63.4206   82.6640   14.6037 C.3     1  UNL1        0.1169
     10 F          63.7570   83.9852    8.7607 F       1  UNL1       -0.1832
     11 C          63.6728   83.6549   10.2215 C.ar    1  UNL1        0.2223
     12 C          62.6878   84.3713   11.0969 C.ar    1  UNL1        0.0494
     13 C          62.6037   84.0410   12.5577 C.ar    1  UNL1        0.0029
     14 C          63.5047   82.9943   13.1430 C.ar    1  UNL1        0.0167
     15 C          64.4898   82.2779   12.2675 C.ar    1  UNL1        0.0986
     16 N          64.5739   82.6082   10.8068 N.ar    1  UNL1       -0.2167
     17 C          63.5543   89.4364   15.7738 C.3     1  UNL1        0.0559
     18 C          63.7954   90.2526   14.5387 C.ar    1  UNL1        0.0043
     19 C          63.0390   90.1433   13.2480 C.ar    1  UNL1        0.0966
     20 N          63.6115   91.1446   12.2891 N.ar    1  UNL1       -0.2273
     21 C          64.7218   91.8727   12.9870 C.ar    1  UNL1        0.1403
     22 N          65.6439   92.9665   12.5362 N.ar    1  UNL1       -0.3367
     23 C          66.6797   93.5089   13.4757 C.ar    1  UNL1        0.0850
     24 C          66.7934   92.9576   14.8661 C.ar    1  UNL1        0.0747
     25 CL         67.8294   93.5001   15.8056 Cl      1  UNL1       -0.0807
     26 C          65.8713   91.8639   15.3169 C.ar    1  UNL1        0.0156
     27 C          64.8355   91.3214   14.3774 C.ar    1  UNL1        0.0327
     28 H          65.5693   93.3283   11.6237 H       1  UNL1        0.1674
@<TRIPOS>BOND
     1    10    11    1
     2    11    12   ar
     3    12    13   ar
     4    13    14   ar
     5    14     9    1
     6     9     7    1
     7     7     1    1
     8     1     2   ar
     9     2     3   ar
    10     3     4   ar
    11     4    17    1
    12    17    18    1
    13    18    19   ar
    14    19    20   ar
    15    20    21   ar
    16    21    22   ar
    17    22    23   ar
    18    23    24   ar
    19    24    25    1
    20    24    26   ar
    21    26    27   ar
    22     4     5   ar
    23     5     6   ar
    24    14    15   ar
    25    15    16   ar
    26    16    11   ar
    27     6     1   ar
    28    27    18   ar
    29    27    21    1
    30     7     8    1
    31    22    28    1
@<TRIPOS>MOLECULE
*****
 28 31 0 0 0
SMALL
GASTEIGER

@<TRIPOS>ATOM
      1 C          63.3715   83.8246   12.9726 C.ar    1  UNL1        0.1287
      2 C          64.1133   83.3411   11.7618 C.ar    1  UNL1        0.0338
      3 C          63.7849   83.8990   10.4088 C.ar    1  UNL1        0.0005
      4 C          62.7148   84.9404   10.2664 C.ar    1  UNL1        0.0015
      5 C          61.9730   85.4239   11.4772 C.ar    1  UNL1        0.0963
      6 N          62.3013   84.8660   12.8302 N.ar    1  UNL1       -0.2297
      7 N          63.6998   83.2667   14.3257 N.pl3   1  UNL1       -0.3144
      8 H          63.3852   82.3684   14.5773 H       1  UNL1        0.1485
      9 C          64.5074   84.0775   15.2955 C.3     1  UNL1        0.1169
     10 F          62.9913   89.7686   16.4404 F       1  UNL1       -0.1832
     11 C          63.3704   88.3459   16.1542 C.ar    1  UNL1        0.2223
     12 C          64.2905   88.0300   15.0124 C.ar    1  UNL1        0.0494
     13 C          64.6695   86.6071   14.7262 C.ar    1  UNL1        0.0029
     14 C          64.1284   85.5002   15.5818 C.ar    1  UNL1        0.0167
     15 C          63.2083   85.8162   16.7236 C.ar    1  UNL1        0.0986
     16 N          62.8293   87.2390   17.0097 N.ar    1  UNL1       -0.2167
     17 C          62.3864   85.4983    8.9132 C.3     1  UNL1        0.0559
     18 C          61.3930   86.6147    8.7831 C.ar    1  UNL1        0.0043
     19 C          60.1577   86.6009    7.9323 C.ar    1  UNL1        0.0966
     20 N          59.4618   87.9185    8.1044 N.ar    1  UNL1       -0.2273
     21 C          60.2670   88.7466    9.0616 C.ar    1  UNL1        0.1403
     22 N          60.0675   90.1302    9.6053 N.ar    1  UNL1       -0.3367
     23 C          61.0616   90.7080   10.5686 C.ar    1  UNL1        0.0850
     24 C          62.2552   89.9021   10.9880 C.ar    1  UNL1        0.0747
     25 CL         63.2493   90.4800   11.9513 Cl      1  UNL1       -0.0807
     26 C          62.4547   88.5185   10.4442 C.ar    1  UNL1        0.0156
     27 C          61.4606   87.9407    9.4810 C.ar    1  UNL1        0.0327
     28 H          59.2841   90.6591    9.3300 H       1  UNL1        0.1674
@<TRIPOS>BOND
     1    10    11    1
     2    11    12   ar
     3    12    13   ar
     4    13    14   ar
     5    14     9    1
     6     9     7    1
     7     7     1    1
     8     1     2   ar
     9     2     3   ar
    10     3     4   ar
    11     4    17    1
    12    17    18    1
    13    18    19   ar
    14    19    20   ar
    15    20    21   ar
    16    21    22   ar
    17    22    23   ar
    18    23    24   ar
    19    24    25    1
    20    24    26   ar
    21    26    27   ar
    22     4     5   ar
    23     5     6   ar
    24    14    15   ar
    25    15    16   ar
    26    16    11   ar
    27     6     1   ar
    28    27    18   ar
    29    27    21    1
    30     7     8    1
    31    22    28    1
@<TRIPOS>MOLECULE
*****
 28 31 0 0 0
SMALL
GASTEIGER

@<TRIPOS>ATOM
      1 C          63.8706   90.7989   12.2618 C.ar    1  UNL1        0.1287
      2 C          63.1029   90.9316   10.9800 C.ar    1  UNL1        0.0338
      3 C          62.3309   89.7627   10.4438 C.ar    1  UNL1        0.0005
      4 C          62.3264   88.4611   11.1894 C.ar    1  UNL1        0.0015
      5 C          63.0941   88.3284   12.4712 C.ar    1  UNL1        0.0963
      6 N          63.8662   89.4973   13.0074 N.ar    1  UNL1       -0.2297
      7 N          64.6428   91.9677   12.7980 N.pl3   1  UNL1       -0.3144
      8 H          64.1881   92.6494   13.3438 H       1  UNL1        0.1485
      9 C          66.1077   92.0981   12.5028 C.3     1  UNL1        0.1169
     10 F          67.9761   95.7982    8.1649 F       1  UNL1       -0.1832
     11 C          67.5090   94.8732    9.2494 C.ar    1  UNL1        0.2223
     12 C          67.8771   93.4197    9.2055 C.ar    1  UNL1        0.0494
     13 C          67.4100   92.4947   10.2900 C.ar    1  UNL1        0.0029
     14 C          66.5748   93.0232   11.4183 C.ar    1  UNL1        0.0167
     15 C          66.2067   94.4766   11.4622 C.ar    1  UNL1        0.0986
     16 N          66.6738   95.4016   10.3777 N.ar    1  UNL1       -0.2167
     17 C          61.5542   87.2922   10.6531 C.3     1  UNL1        0.0559
     18 C          62.2816   86.1118   10.0808 C.ar    1  UNL1        0.0043
     19 C          62.5964   85.8882    8.6313 C.ar    1  UNL1        0.0966
     20 N          63.3313   84.5860    8.5122 N.ar    1  UNL1       -0.2273
     21 C          63.4707   84.0048    9.8880 C.ar    1  UNL1        0.1403
     22 N          64.1045   82.7387   10.3832 N.ar    1  UNL1       -0.3367
     23 C          64.0896   82.4157   11.8479 C.ar    1  UNL1        0.0850
     24 C          63.4409   83.3587   12.8173 C.ar    1  UNL1        0.0747
     25 CL         63.4261   83.0357   14.2821 Cl      1  UNL1       -0.0807
     26 C          62.8071   84.6248   12.3221 C.ar    1  UNL1        0.0156
     27 C          62.8220   84.9478   10.8574 C.ar    1  UNL1        0.0327
     28 H          64.5303   82.1198    9.7469 H       1  UNL1        0.1674
@<TRIPOS>BOND
     1    10    11    1
     2    11    12   ar
     3    12    13   ar
     4    13    14   ar
     5    14     9    1
     6     9     7    1
     7     7     1    1
     8     1     2   ar
     9     2     3   ar
    10     3     4   ar
    11     4    17    1
    12    17    18    1
    13    18    19   ar
    14    19    20   ar
    15    20    21   ar
    16    21    22   ar
    17    22    23   ar
    18    23    24   ar
    19    24    25    1
    20    24    26   ar
    21    26    27   ar
    22     4     5   ar
    23     5     6   ar
    24    14    15   ar
    25    15    16   ar
    26    16    11   ar
    27     6     1   ar
    28    27    18   ar
    29    27    21    1
    30     7     8    1
    31    22    28    1
@<TRIPOS>MOLECULE
*****
 28 31 0 0 0
SMALL
GASTEIGER

@<TRIPOS>ATOM
      1 C          62.8021   90.1045   11.1309 C.ar    1  UNL1        0.1287
      2 C          63.1544   89.0397   12.1270 C.ar    1  UNL1        0.0338
      3 C          62.7769   87.6121   11.8637 C.ar    1  UNL1        0.0005
      4 C          62.0471   87.2493   10.6045 C.ar    1  UNL1        0.0015
      5 C          61.6947   88.3140    9.6084 C.ar    1  UNL1        0.0963
      6 N          62.0723   89.7416    9.8717 N.ar    1  UNL1       -0.2297
      7 N          63.1796   91.5322   11.3941 N.pl3   1  UNL1       -0.3144
      8 H          62.4841   92.1920   11.6178 H       1  UNL1        0.1485
      9 C          64.6169   91.9546   11.3164 C.3     1  UNL1        0.1169
     10 F          67.5867   93.4233   16.3185 F       1  UNL1       -0.1832
     11 C          66.8442   93.0561   15.0680 C.ar    1  UNL1        0.2223
     12 C          66.0591   91.7793   15.0094 C.ar    1  UNL1        0.0494
     13 C          65.3166   91.4122   13.7588 C.ar    1  UNL1        0.0029
     14 C          65.3593   92.3218   12.5669 C.ar    1  UNL1        0.0167
     15 C          66.1445   93.5986   12.6255 C.ar    1  UNL1        0.0986
     16 N          66.8869   93.9657   13.8760 N.ar    1  UNL1       -0.2167
     17 C          61.6695   85.8215   10.3413 C.3     1  UNL1        0.0559
     18 C          62.6799   84.7303   10.5371 C.ar    1  UNL1        0.0043
     19 C          63.5191   84.1028    9.4638 C.ar    1  UNL1        0.0966
     20 N          64.3863   83.0596   10.1040 N.ar    1  UNL1       -0.2273
     21 C          64.0830   83.0424   11.5729 C.ar    1  UNL1        0.1403
     22 N          64.6310   82.2200   12.7013 N.ar    1  UNL1       -0.3367
     23 C          64.1243   82.4300   14.0974 C.ar    1  UNL1        0.0850
     24 C          63.0696   83.4625   14.3650 C.ar    1  UNL1        0.0747
     25 CL         62.5629   83.6726   15.7612 Cl      1  UNL1       -0.0807
     26 C          62.5217   84.2850   13.2367 C.ar    1  UNL1        0.0156
     27 C          63.0284   84.0749   11.8406 C.ar    1  UNL1        0.0327
     28 H          65.3231   81.5423   12.5256 H       1  UNL1        0.1674
@<TRIPOS>BOND
     1    10    11    1
     2    11    12   ar
     3    12    13   ar
     4    13    14   ar
     5    14     9    1
     6     9     7    1
     7     7     1    1
     8     1     2   ar
     9     2     3   ar
    10     3     4   ar
    11     4    17    1
    12    17    18    1
    13    18    19   ar
    14    19    20   ar
    15    20    21   ar
    16    21    22   ar
    17    22    23   ar
    18    23    24   ar
    19    24    25    1
    20    24    26   ar
    21    26    27   ar
    22     4     5   ar
    23     5     6   ar
    24    14    15   ar
    25    15    16   ar
    26    16    11   ar
    27     6     1   ar
    28    27    18   ar
    29    27    21    1
    30     7     8    1
    31    22    28    1
@<TRIPOS>MOLECULE
*****
 28 31 0 0 0
SMALL
GASTEIGER

@<TRIPOS>ATOM
      1 C          60.9622   86.6543    8.6633 C.ar    1  UNL1        0.1287
      2 C          61.0000   86.2839   10.1164 C.ar    1  UNL1        0.0338
      3 C          61.9718   85.2495   10.6016 C.ar    1  UNL1        0.0005
      4 C          62.9059   84.5855    9.6338 C.ar    1  UNL1        0.0015
      5 C          62.8681   84.9559    8.1807 C.ar    1  UNL1        0.0963
      6 N          61.8963   85.9903    7.6955 N.ar    1  UNL1       -0.2297
      7 N          59.9904   87.6888    8.1780 N.pl3   1  UNL1       -0.3144
      8 H          59.2588   87.4308    7.5719 H       1  UNL1        0.1485
      9 C          60.1333   89.1162    8.6163 C.3     1  UNL1        0.1169
     10 F          62.9027   90.4064   13.7800 F       1  UNL1       -0.1832
     11 C          62.2104   90.0839   12.4891 C.ar    1  UNL1        0.2223
     12 C          62.9609   90.1711   11.1933 C.ar    1  UNL1        0.0494
     13 C          62.2685   89.8485    9.9024 C.ar    1  UNL1        0.0029
     14 C          60.8256   89.4388    9.9072 C.ar    1  UNL1        0.0167
     15 C          60.0750   89.3516   11.2030 C.ar    1  UNL1        0.0986
     16 N          60.7674   89.6741   12.4939 N.ar    1  UNL1       -0.2167
     17 C          63.8777   83.5510   10.1190 C.3     1  UNL1        0.0559
     18 C          63.5868   82.7773   11.3708 C.ar    1  UNL1        0.0043
     19 C          63.1989   81.3301   11.4428 C.ar    1  UNL1        0.0966
     20 N          63.0051   80.9735   12.8868 N.ar    1  UNL1       -0.2273
     21 C          63.2733   82.2003   13.7073 C.ar    1  UNL1        0.1403
     22 N          63.2365   82.4462   15.1865 N.ar    1  UNL1       -0.3367
     23 C          63.5592   83.8070   15.7287 C.ar    1  UNL1        0.0850
     24 C          63.9188   84.9218   14.7918 C.ar    1  UNL1        0.0747
     25 CL         64.2415   86.2826   15.3341 Cl      1  UNL1       -0.0807
     26 C          63.9555   84.6759   13.3126 C.ar    1  UNL1        0.0156
     27 C          63.6328   83.3151   12.7703 C.ar    1  UNL1        0.0327
     28 H          63.0005   81.7145   15.8015 H       1  UNL1        0.1674
@<TRIPOS>BOND
     1    10    11    1
     2    11    12   ar
     3    12    13   ar
     4    13    14   ar
     5    14     9    1
     6     9     7    1
     7     7     1    1
     8     1     2   ar
     9     2     3   ar
    10     3     4   ar
    11     4    17    1
    12    17    18    1
    13    18    19   ar
    14    19    20   ar
    15    20    21   ar
    16    21    22   ar
    17    22    23   ar
    18    23    24   ar
    19    24    25    1
    20    24    26   ar
    21    26    27   ar
    22     4     5   ar
    23     5     6   ar
    24    14    15   ar
    25    15    16   ar
    26    16    11   ar
    27     6     1   ar
    28    27    18   ar
    29    27    21    1
    30     7     8    1
    31    22    28    1
@<TRIPOS>MOLECULE
*****
 28 31 0 0 0
SMALL
GASTEIGER

@<TRIPOS>ATOM
      1 C          63.2692   87.0749   16.3421 C.ar    1  UNL1        0.1287
      2 C          62.3969   85.9296   16.7633 C.ar    1  UNL1        0.0338
      3 C          62.4062   84.6516   15.9781 C.ar    1  UNL1        0.0005
      4 C          63.2878   84.5189   14.7718 C.ar    1  UNL1        0.0015
      5 C          64.1601   85.6642   14.3506 C.ar    1  UNL1        0.0963
      6 N          64.1507   86.9422   15.1358 N.ar    1  UNL1       -0.2297
      7 N          63.2600   88.3530   17.1273 N.pl3   1  UNL1       -0.3144
      8 H          63.5200   88.3493   18.0768 H       1  UNL1        0.1485
      9 C          62.8545   89.6368   16.4658 C.3     1  UNL1        0.1169
     10 F          67.0257   93.2327   14.0847 F       1  UNL1       -0.1832
     11 C          65.9829   92.3337   14.6799 C.ar    1  UNL1        0.2223
     12 C          65.5162   91.1241   13.9256 C.ar    1  UNL1        0.0494
     13 C          64.4734   90.2251   14.5209 C.ar    1  UNL1        0.0029
     14 C          63.8973   90.5358   15.8706 C.ar    1  UNL1        0.0167
     15 C          64.3639   91.7454   16.6249 C.ar    1  UNL1        0.0986
     16 N          65.4067   92.6443   16.0296 N.ar    1  UNL1       -0.2167
     17 C          63.2971   83.2408   13.9866 C.3     1  UNL1        0.0559
     18 C          63.6286   83.2616   12.5238 C.ar    1  UNL1        0.0043
     19 C          64.5963   82.3524   11.8261 C.ar    1  UNL1        0.0966
     20 N          64.6163   82.7242   10.3730 N.ar    1  UNL1       -0.2273
     21 C          63.6610   83.8631   10.1727 C.ar    1  UNL1        0.1403
     22 N          63.2681   84.6407    8.9517 N.ar    1  UNL1       -0.3367
     23 C          62.2647   85.7504    9.0599 C.ar    1  UNL1        0.0850
     24 C          61.6542   86.0825   10.3892 C.ar    1  UNL1        0.0747
     25 CL         60.6508   87.1923   10.4974 Cl      1  UNL1       -0.0807
     26 C          62.0471   85.3050   11.6103 C.ar    1  UNL1        0.0156
     27 C          63.0505   84.1953   11.5020 C.ar    1  UNL1        0.0327
     28 H          63.6687   84.4227    8.0792 H       1  UNL1        0.1674
@<TRIPOS>BOND
     1    10    11    1
     2    11    12   ar
     3    12    13   ar
     4    13    14   ar
     5    14     9    1
     6     9     7    1
     7     7     1    1
     8     1     2   ar
     9     2     3   ar
    10     3     4   ar
    11     4    17    1
    12    17    18    1
    13    18    19   ar
    14    19    20   ar
    15    20    21   ar
    16    21    22   ar
    17    22    23   ar
    18    23    24   ar
    19    24    25    1
    20    24    26   ar
    21    26    27   ar
    22     4     5   ar
    23     5     6   ar
    24    14    15   ar
    25    15    16   ar
    26    16    11   ar
    27     6     1   ar
    28    27    18   ar
    29    27    21    1
    30     7     8    1
    31    22    28    1
@<TRIPOS>MOLECULE
*****
 28 31 0 0 0
SMALL
GASTEIGER

@<TRIPOS>ATOM
      1 C          62.4960   87.0064   11.4222 C.ar    1  UNL1        0.1287
      2 C          62.1317   87.8268   10.2204 C.ar    1  UNL1        0.0338
      3 C          62.4201   89.2986   10.2018 C.ar    1  UNL1        0.0005
      4 C          63.0729   89.9501   11.3847 C.ar    1  UNL1        0.0015
      5 C          63.4372   89.1297   12.5865 C.ar    1  UNL1        0.0963
      6 N          63.1488   87.6579   12.6052 N.ar    1  UNL1       -0.2297
      7 N          62.2076   85.5345   11.4410 N.pl3   1  UNL1       -0.3144
      8 H          61.2822   85.2130   11.3439 H       1  UNL1        0.1485
      9 C          63.3291   84.5525   11.6077 C.3     1  UNL1        0.1169
     10 F          62.2643   79.1637   14.0215 F       1  UNL1       -0.1832
     11 C          62.5305   80.5109   13.4180 C.ar    1  UNL1        0.2223
     12 C          62.7998   80.6341   11.9475 C.ar    1  UNL1        0.0494
     13 C          63.0660   81.9813   11.3441 C.ar    1  UNL1        0.0029
     14 C          63.0629   83.2053   12.2112 C.ar    1  UNL1        0.0167
     15 C          62.7936   83.0821   13.6816 C.ar    1  UNL1        0.0986
     16 N          62.5274   81.7349   14.2850 N.ar    1  UNL1       -0.2167
     17 C          63.3613   91.4221   11.3660 C.3     1  UNL1        0.0559
     18 C          64.7567   91.9161   11.6083 C.ar    1  UNL1        0.0043
     19 C          65.7715   92.2443   10.5535 C.ar    1  UNL1        0.0966
     20 N          67.0243   92.6996   11.2414 N.ar    1  UNL1       -0.2273
     21 C          66.7839   92.6528   12.7212 C.ar    1  UNL1        0.1403
     22 N          67.6600   92.9885   13.8915 N.ar    1  UNL1       -0.3367
     23 C          67.1347   92.8400   15.2886 C.ar    1  UNL1        0.0850
     24 C          65.7332   92.3557   15.5154 C.ar    1  UNL1        0.0747
     25 CL         65.2079   92.2072   16.9126 Cl      1  UNL1       -0.0807
     26 C          64.8571   92.0200   14.3451 C.ar    1  UNL1        0.0156
     27 C          65.3824   92.1685   12.9480 C.ar    1  UNL1        0.0327
     28 H          68.5798   93.3063   13.7427 H       1  UNL1        0.1674
@<TRIPOS>BOND
     1    10    11    1
     2    11    12   ar
     3    12    13   ar
     4    13    14   ar
     5    14     9    1
     6     9     7    1
     7     7     1    1
     8     1     2   ar
     9     2     3   ar
    10     3     4   ar
    11     4    17    1
    12    17    18    1
    13    18    19   ar
    14    19    20   ar
    15    20    21   ar
    16    21    22   ar
    17    22    23   ar
    18    23    24   ar
    19    24    25    1
    20    24    26   ar
    21    26    27   ar
    22     4     5   ar
    23     5     6   ar
    24    14    15   ar
    25    15    16   ar
    26    16    11   ar
    27     6     1   ar
    28    27    18   ar
    29    27    21    1
    30     7     8    1
    31    22    28    1
