@<TRIPOS>MOLECULE
*****
 34 36 0 0 0
SMALL
GASTEIGER

@<TRIPOS>ATOM
      1 C          60.9845   87.0948   10.3413 C.ar    1  UNL1        0.2264
      2 C          61.5419   86.7449    8.9934 C.ar    1  UNL1        0.0594
      3 C          62.5274   85.6223    8.8578 C.ar    1  UNL1        0.0271
      4 C          62.9556   84.8496   10.0700 C.ar    1  UNL1        0.1184
      5 N          63.9041   83.7007   10.2446 N.ar    1  UNL1       -0.2123
      6 C          63.9329   83.3406   11.7005 C.ar    1  UNL1        0.1959
      7 N          64.7492   82.2462   12.3220 N.pl3   1  UNL1       -0.3287
      8 N          63.0023   84.2668   12.4256 N.ar    1  UNL1       -0.2824
      9 C          62.3982   85.1995   11.4179 C.ar    1  UNL1        0.1668
     10 N          61.4127   86.3221   11.5535 N.ar    1  UNL1       -0.1926
     11 H          65.3338   81.6883   11.7598 H       1  UNL1        0.1451
     12 H          64.7002   82.0860   13.2921 H       1  UNL1        0.1451
     13 O          59.9990   88.2175   10.4770 O.3     1  UNL1       -0.4550
     14 C          59.4006   90.4876   11.5898 C.3     1  UNL1        0.0566
     15 C          60.4286   89.5246   11.0744 C.3     1  UNL1        0.2616
     16 C          61.8864   89.8686   11.1564 C.3     1  UNL1        0.4341
     17 F          63.3441   90.2127   11.2385 F       1  UNL1       -0.1664
     18 F          61.9326   90.0284    9.6657 F       1  UNL1       -0.1664
     19 F          61.8402   89.7089   12.6471 F       1  UNL1       -0.1664
     20 C          62.7244   84.2615   13.8996 C.3     1  UNL1        0.1438
     21 C          63.7294   84.8344   14.8544 C.3     1  UNL1        0.1561
     22 O          64.7173   83.9330   15.5337 O.3     1  UNL1       -0.3780
     23 H          64.5704   83.0180   15.2471 H       1  UNL1        0.2109
     24 C          63.7465   86.3088   15.1298 C.ar    1  UNL1        0.0167
     25 C          64.3117   87.2552   14.1125 C.ar    1  UNL1       -0.0011
     26 C          64.3288   88.7297   14.3878 C.ar    1  UNL1        0.0037
     27 C          63.7808   89.2577   15.6805 C.ar    1  UNL1        0.0722
     28 C          63.2157   88.3112   16.6978 C.ar    1  UNL1        0.0150
     29 C          63.1986   86.8368   16.4225 C.ar    1  UNL1        0.0559
     30 CL         62.6335   85.8904   17.4398 Cl      1  UNL1       -0.0825
     31 C          63.7979   90.7321   15.9559 C.3     1  UNL1        0.4186
     32 F          63.8151   92.2065   16.2312 F       1  UNL1       -0.1659
     33 F          64.0313   91.0014   14.4989 F       1  UNL1       -0.1659
     34 F          63.5646   90.4627   17.4129 F       1  UNL1       -0.1659
@<TRIPOS>BOND
     1    14    15    1
     2    15    13    1
     3    13     1    1
     4     1     2   ar
     5     2     3   ar
     6     3     4   ar
     7     4     5   ar
     8     5     6   ar
     9     6     7    1
    10     6     8   ar
    11     8    20    1
    12    20    21    1
    13    21    22    1
    14    21    24    1
    15    24    25   ar
    16    25    26   ar
    17    26    27   ar
    18    27    31    1
    19    31    32    1
    20    31    33    1
    21    31    34    1
    22    27    28   ar
    23    28    29   ar
    24    29    30    1
    25     8     9   ar
    26     9    10   ar
    27    15    16    1
    28    16    17    1
    29    16    18    1
    30    16    19    1
    31    10     1   ar
    32     9     4   ar
    33    29    24   ar
    34     7    11    1
    35     7    12    1
    36    22    23    1
@<TRIPOS>MOLECULE
*****
 34 36 0 0 0
SMALL
GASTEIGER

@<TRIPOS>ATOM
      1 C          63.2955   85.6070   12.5808 C.ar    1  UNL1        0.2264
      2 C          62.8958   84.5812   11.5620 C.ar    1  UNL1        0.0594
      3 C          62.1192   84.9940   10.3469 C.ar    1  UNL1        0.0271
      4 C          61.7424   86.4325   10.1506 C.ar    1  UNL1        0.1184
      5 N          60.9856   87.1321    9.0607 N.ar    1  UNL1       -0.2123
      6 C          60.9175   88.5903    9.4059 C.ar    1  UNL1        0.1959
      7 N          60.2516   89.6591    8.5910 N.pl3   1  UNL1       -0.3287
      8 N          61.6323   88.7919   10.7091 N.ar    1  UNL1       -0.2824
      9 C          62.1421   87.4583   11.1693 C.ar    1  UNL1        0.1668
     10 N          62.9187   87.0455   12.3845 N.ar    1  UNL1       -0.1926
     11 H          59.8058   89.4268    7.7445 H       1  UNL1        0.1451
     12 H          60.2603   90.5930    8.9026 H       1  UNL1        0.1451
     13 O          64.0721   85.1942   13.7960 O.3     1  UNL1       -0.4550
     14 C          62.6621   83.5724   15.2558 C.3     1  UNL1        0.0566
     15 C          63.3542   84.8911   15.0776 C.3     1  UNL1        0.2616
     16 C          63.3285   85.9068   16.1812 C.3     1  UNL1        0.4341
     17 F          63.3027   86.9225   17.2847 F       1  UNL1       -0.1664
     18 F          62.2599   85.1201   16.8805 F       1  UNL1       -0.1664
     19 F          64.3970   86.6936   15.4819 F       1  UNL1       -0.1664
     20 C          61.8068   90.0977   11.4263 C.3     1  UNL1        0.1438
     21 C          62.9885   90.9695   11.1203 C.3     1  UNL1        0.1561
     22 O          63.1363   91.5818    9.7590 O.3     1  UNL1       -0.3780
     23 H          62.3882   91.3157    9.2018 H       1  UNL1        0.2109
     24 C          64.0224   91.2287   12.1756 C.ar    1  UNL1        0.0167
     25 C          63.9688   90.4845   13.4769 C.ar    1  UNL1       -0.0011
     26 C          65.0027   90.7437   14.5323 C.ar    1  UNL1        0.0037
     27 C          66.0902   91.7471   14.2865 C.ar    1  UNL1        0.0722
     28 C          66.1438   92.4913   12.9852 C.ar    1  UNL1        0.0150
     29 C          65.1099   92.2321   11.9298 C.ar    1  UNL1        0.0559
     30 CL         65.1636   92.9764   10.6285 Cl      1  UNL1       -0.0825
     31 C          67.1241   92.0064   15.3418 C.3     1  UNL1        0.4186
     32 F          68.1579   92.2657   16.3973 F       1  UNL1       -0.1659
     33 F          66.0462   92.4373   16.2918 F       1  UNL1       -0.1659
     34 F          68.2020   91.5755   14.3919 F       1  UNL1       -0.1659
@<TRIPOS>BOND
     1    14    15    1
     2    15    13    1
     3    13     1    1
     4     1     2   ar
     5     2     3   ar
     6     3     4   ar
     7     4     5   ar
     8     5     6   ar
     9     6     7    1
    10     6     8   ar
    11     8    20    1
    12    20    21    1
    13    21    22    1
    14    21    24    1
    15    24    25   ar
    16    25    26   ar
    17    26    27   ar
    18    27    31    1
    19    31    32    1
    20    31    33    1
    21    31    34    1
    22    27    28   ar
    23    28    29   ar
    24    29    30    1
    25     8     9   ar
    26     9    10   ar
    27    15    16    1
    28    16    17    1
    29    16    18    1
    30    16    19    1
    31    10     1   ar
    32     9     4   ar
    33    29    24   ar
    34     7    11    1
    35     7    12    1
    36    22    23    1
@<TRIPOS>MOLECULE
*****
 34 36 0 0 0
SMALL
GASTEIGER

@<TRIPOS>ATOM
      1 C          63.2461   84.6716   13.5727 C.ar    1  UNL1        0.2264
      2 C          64.1300   84.8914   14.7645 C.ar    1  UNL1        0.0594
      3 C          64.6219   86.2708   15.0892 C.ar    1  UNL1        0.0271
      4 C          64.2300   87.4303   14.2221 C.ar    1  UNL1        0.1184
      5 N          64.5581   88.8923   14.2926 N.ar    1  UNL1       -0.2123
      6 C          63.8770   89.5760   13.1443 C.ar    1  UNL1        0.1959
      7 N          63.9347   91.0419   12.8311 N.pl3   1  UNL1       -0.3287
      8 N          63.1280   88.5367   12.3641 N.ar    1  UNL1       -0.2824
      9 C          63.3462   87.2105   13.0303 C.ar    1  UNL1        0.1668
     10 N          62.8542   85.8312   12.7056 N.ar    1  UNL1       -0.1926
     11 H          64.4561   91.6479   13.4058 H       1  UNL1        0.1451
     12 H          63.4513   91.3980   12.0509 H       1  UNL1        0.1451
     13 O          62.7542   83.2923   13.2479 O.3     1  UNL1       -0.4550
     14 C          64.3545   83.1883   11.2039 C.3     1  UNL1        0.0566
     15 C          63.3792   82.5180   12.1256 C.3     1  UNL1        0.2616
     16 C          63.0289   81.0733   11.9248 C.3     1  UNL1        0.4341
     17 F          62.6786   79.6287   11.7240 F       1  UNL1       -0.1664
     18 F          63.1628   81.2470   10.4409 F       1  UNL1       -0.1664
     19 F          62.8949   80.8996   13.4086 F       1  UNL1       -0.1664
     20 C          62.3052   88.7806   11.1339 C.3     1  UNL1        0.1438
     21 C          61.2194   87.8177   10.7547 C.3     1  UNL1        0.1561
     22 O          59.9697   87.7335   11.5801 O.3     1  UNL1       -0.3780
     23 H          60.0249   88.3636   12.3155 H       1  UNL1        0.2109
     24 C          61.3832   86.9390    9.5502 C.ar    1  UNL1        0.0167
     25 C          62.6693   86.1987    9.3313 C.ar    1  UNL1       -0.0011
     26 C          62.8333   85.3199    8.1267 C.ar    1  UNL1        0.0037
     27 C          61.7111   85.1815    7.1410 C.ar    1  UNL1        0.0722
     28 C          60.4250   85.9218    7.3599 C.ar    1  UNL1        0.0150
     29 C          60.2611   86.8005    8.5645 C.ar    1  UNL1        0.0559
     30 CL         58.9750   87.5408    8.7833 Cl      1  UNL1       -0.0825
     31 C          61.8750   84.3028    5.9364 C.3     1  UNL1        0.4186
     32 F          62.0388   83.4241    4.7319 F       1  UNL1       -0.1659
     33 F          60.4092   83.9862    5.9681 F       1  UNL1       -0.1659
     34 F          63.3408   84.6194    5.9047 F       1  UNL1       -0.1659
@<TRIPOS>BOND
     1    14    15    1
     2    15    13    1
     3    13     1    1
     4     1     2   ar
     5     2     3   ar
     6     3     4   ar
     7     4     5   ar
     8     5     6   ar
     9     6     7    1
    10     6     8   ar
    11     8    20    1
    12    20    21    1
    13    21    22    1
    14    21    24    1
    15    24    25   ar
    16    25    26   ar
    17    26    27   ar
    18    27    31    1
    19    31    32    1
    20    31    33    1
    21    31    34    1
    22    27    28   ar
    23    28    29   ar
    24    29    30    1
    25     8     9   ar
    26     9    10   ar
    27    15    16    1
    28    16    17    1
    29    16    18    1
    30    16    19    1
    31    10     1   ar
    32     9     4   ar
    33    29    24   ar
    34     7    11    1
    35     7    12    1
    36    22    23    1
@<TRIPOS>MOLECULE
*****
 34 36 0 0 0
SMALL
GASTEIGER

@<TRIPOS>ATOM
      1 C          64.1062   83.9526   13.9060 C.ar    1  UNL1        0.2264
      2 C          63.3631   83.3108   15.0399 C.ar    1  UNL1        0.0594
      3 C          62.8542   84.1506   16.1738 C.ar    1  UNL1        0.0271
      4 C          63.0885   85.6322   16.1738 C.ar    1  UNL1        0.1184
      5 N          62.7081   86.7086   17.1468 N.ar    1  UNL1       -0.2123
      6 C          63.2161   88.0156   16.6142 C.ar    1  UNL1        0.1959
      7 N          63.0575   89.3559   17.2689 N.pl3   1  UNL1       -0.3287
      8 N          63.9105   87.7470   15.3121 N.ar    1  UNL1       -0.2824
      9 C          63.8316   86.2740   15.0399 C.ar    1  UNL1        0.1668
     10 N          64.3405   85.4342   13.9060 N.ar    1  UNL1       -0.1926
     11 H          62.5831   89.4309   18.1283 H       1  UNL1        0.1451
     12 H          63.4279   90.1605   16.8392 H       1  UNL1        0.1451
     13 O          64.6151   83.1128   12.7721 O.3     1  UNL1       -0.4550
     14 C          62.8682   81.4976   11.7283 C.3     1  UNL1        0.0566
     15 C          63.6996   82.7432   11.6428 C.3     1  UNL1        0.2616
     16 C          63.6155   83.6192   10.4280 C.3     1  UNL1        0.4341
     17 F          63.5313   84.4952    9.2133 F       1  UNL1       -0.1664
     18 F          64.6947   82.8111    9.7705 F       1  UNL1       -0.1664
     19 F          62.5363   84.4273   11.0855 F       1  UNL1       -0.1664
     20 C          64.5683   88.7715   14.4359 C.3     1  UNL1        0.1438
     21 C          63.7824   89.9480   13.9376 C.3     1  UNL1        0.1561
     22 O          62.3070   90.0281   14.1959 O.3     1  UNL1       -0.3780
     23 H          62.0228   89.2453   14.6933 H       1  UNL1        0.2109
     24 C          64.4720   91.0443   13.1810 C.ar    1  UNL1        0.0167
     25 C          65.5075   91.8891   13.8622 C.ar    1  UNL1       -0.0011
     26 C          66.1972   92.9855   13.1056 C.ar    1  UNL1        0.0037
     27 C          65.8514   93.2371   11.6679 C.ar    1  UNL1        0.0722
     28 C          64.8159   92.3922   10.9867 C.ar    1  UNL1        0.0150
     29 C          64.1262   91.2959   11.7432 C.ar    1  UNL1        0.0559
     30 CL         63.0907   90.4510   11.0620 Cl      1  UNL1       -0.0825
     31 C          66.5410   94.3334   10.9113 C.3     1  UNL1        0.4186
     32 F          67.2307   95.4297   10.1546 F       1  UNL1       -0.1659
     33 F          66.8893   93.3626    9.8222 F       1  UNL1       -0.1659
     34 F          66.1928   95.3042   12.0004 F       1  UNL1       -0.1659
@<TRIPOS>BOND
     1    14    15    1
     2    15    13    1
     3    13     1    1
     4     1     2   ar
     5     2     3   ar
     6     3     4   ar
     7     4     5   ar
     8     5     6   ar
     9     6     7    1
    10     6     8   ar
    11     8    20    1
    12    20    21    1
    13    21    22    1
    14    21    24    1
    15    24    25   ar
    16    25    26   ar
    17    26    27   ar
    18    27    31    1
    19    31    32    1
    20    31    33    1
    21    31    34    1
    22    27    28   ar
    23    28    29   ar
    24    29    30    1
    25     8     9   ar
    26     9    10   ar
    27    15    16    1
    28    16    17    1
    29    16    18    1
    30    16    19    1
    31    10     1   ar
    32     9     4   ar
    33    29    24   ar
    34     7    11    1
    35     7    12    1
    36    22    23    1
@<TRIPOS>MOLECULE
*****
 34 36 0 0 0
SMALL
GASTEIGER

@<TRIPOS>ATOM
      1 C          63.7441   88.5273   15.6916 C.ar    1  UNL1        0.2264
      2 C          63.1362   88.3020   17.0442 C.ar    1  UNL1        0.0594
      3 C          62.6901   86.9275   17.4464 C.ar    1  UNL1        0.0271
      4 C          62.8519   85.7783   16.4960 C.ar    1  UNL1        0.1184
      5 N          62.5080   84.3230   16.6130 N.ar    1  UNL1       -0.2123
      6 C          62.9033   83.6489   15.3326 C.ar    1  UNL1        0.1959
      7 N          62.7392   82.1918   15.0161 N.pl3   1  UNL1       -0.3287
      8 N          63.4916   84.6876   14.4243 N.ar    1  UNL1       -0.2824
      9 C          63.4598   86.0037   15.1434 C.ar    1  UNL1        0.1668
     10 N          63.9059   87.3782   14.7412 N.ar    1  UNL1       -0.1926
     11 H          62.3398   81.5856   15.6811 H       1  UNL1        0.1451
     12 H          63.0309   81.8418   14.1434 H       1  UNL1        0.1451
     13 O          64.1902   89.9018   15.2894 O.3     1  UNL1       -0.4550
     14 C          62.8536   89.9328   13.0617 C.3     1  UNL1        0.0566
     15 C          64.0507   90.3485   13.8643 C.3     1  UNL1        0.2616
     16 C          65.1083   91.2110   13.2417 C.3     1  UNL1        0.4341
     17 F          66.1659   92.0735   12.6191 F       1  UNL1       -0.1664
     18 F          66.0437   90.8751   14.3651 F       1  UNL1       -0.1664
     19 F          64.1730   91.5470   12.1182 F       1  UNL1       -0.1664
     20 C          64.0190   84.4518   13.0401 C.3     1  UNL1        0.1438
     21 C          63.0825   84.0523   11.9386 C.3     1  UNL1        0.1561
     22 O          62.7937   82.6017   11.6889 O.3     1  UNL1       -0.3780
     23 H          63.2890   82.0596   12.3227 H       1  UNL1        0.2109
     24 C          62.4349   85.1034   11.0868 C.ar    1  UNL1        0.0167
     25 C          61.5009   86.1003   11.7065 C.ar    1  UNL1       -0.0011
     26 C          60.8532   87.1515   10.8547 C.ar    1  UNL1        0.0037
     27 C          61.1394   87.2059    9.3833 C.ar    1  UNL1        0.0722
     28 C          62.0734   86.2089    8.7636 C.ar    1  UNL1        0.0150
     29 C          62.7211   85.1577    9.6154 C.ar    1  UNL1        0.0559
     30 CL         63.6550   84.1609    8.9957 Cl      1  UNL1       -0.0825
     31 C          60.4918   88.2570    8.5315 C.3     1  UNL1        0.4186
     32 F          59.8442   89.3082    7.6797 F       1  UNL1       -0.1659
     33 F          61.0195   89.3228    9.4456 F       1  UNL1       -0.1659
     34 F          59.9641   87.1912    7.6173 F       1  UNL1       -0.1659
@<TRIPOS>BOND
     1    14    15    1
     2    15    13    1
     3    13     1    1
     4     1     2   ar
     5     2     3   ar
     6     3     4   ar
     7     4     5   ar
     8     5     6   ar
     9     6     7    1
    10     6     8   ar
    11     8    20    1
    12    20    21    1
    13    21    22    1
    14    21    24    1
    15    24    25   ar
    16    25    26   ar
    17    26    27   ar
    18    27    31    1
    19    31    32    1
    20    31    33    1
    21    31    34    1
    22    27    28   ar
    23    28    29   ar
    24    29    30    1
    25     8     9   ar
    26     9    10   ar
    27    15    16    1
    28    16    17    1
    29    16    18    1
    30    16    19    1
    31    10     1   ar
    32     9     4   ar
    33    29    24   ar
    34     7    11    1
    35     7    12    1
    36    22    23    1
@<TRIPOS>MOLECULE
*****
 34 36 0 0 0
SMALL
GASTEIGER

@<TRIPOS>ATOM
      1 C          63.3336   85.6812   12.6457 C.ar    1  UNL1        0.2264
      2 C          62.7242   84.6220   11.7758 C.ar    1  UNL1        0.0594
      3 C          61.8840   85.0123   10.5961 C.ar    1  UNL1        0.0271
      4 C          61.6531   86.4616   10.2863 C.ar    1  UNL1        0.1184
      5 N          60.8766   87.1445    9.1997 N.ar    1  UNL1       -0.2123
      6 C          61.0061   88.6257    9.3980 C.ar    1  UNL1        0.1959
      7 N          60.3876   89.6878    8.5381 N.pl3   1  UNL1       -0.3287
      8 N          61.8626   88.8583   10.6073 N.ar    1  UNL1       -0.2824
      9 C          62.2625   87.5208   11.1563 C.ar    1  UNL1        0.1668
     10 N          63.1027   87.1305   12.3359 N.ar    1  UNL1       -0.1926
     11 H          59.8383   89.4343    7.7614 H       1  UNL1        0.1451
     12 H          60.5311   90.6384    8.7503 H       1  UNL1        0.1451
     13 O          64.1739   85.2909   13.8254 O.3     1  UNL1       -0.4550
     14 C          63.6304   85.5815   16.3493 C.3     1  UNL1        0.0566
     15 C          63.5201   84.7909   15.0793 C.3     1  UNL1        0.2616
     16 C          62.7559   83.5002   15.0634 C.3     1  UNL1        0.4341
     17 F          61.9917   82.2096   15.0474 F       1  UNL1       -0.1664
     18 F          64.0451   82.7379   14.9814 F       1  UNL1       -0.1664
     19 F          61.4667   84.2625   15.1453 F       1  UNL1       -0.1664
     20 C          62.2511   90.1938   11.1689 C.3     1  UNL1        0.1438
     21 C          62.5728   90.3291   12.6278 C.3     1  UNL1        0.1561
     22 O          61.5577   89.9347   13.6593 O.3     1  UNL1       -0.3780
     23 H          60.7551   89.6157   13.2178 H       1  UNL1        0.2109
     24 C          63.9095   90.8587   13.0550 C.ar    1  UNL1        0.0167
     25 C          64.5662   91.9567   12.2720 C.ar    1  UNL1       -0.0011
     26 C          65.9030   92.4864   12.6992 C.ar    1  UNL1        0.0037
     27 C          66.5831   91.9180   13.9093 C.ar    1  UNL1        0.0722
     28 C          65.9264   90.8199   14.6922 C.ar    1  UNL1        0.0150
     29 C          64.5896   90.2903   14.2651 C.ar    1  UNL1        0.0559
     30 CL         63.9329   89.1922   15.0481 Cl      1  UNL1       -0.0825
     31 C          67.9199   92.4476   14.3365 C.3     1  UNL1        0.4186
     32 F          69.2566   92.9773   14.7638 F       1  UNL1       -0.1659
     33 F          67.2588   93.2350   15.4287 F       1  UNL1       -0.1659
     34 F          68.5810   91.6602   13.2443 F       1  UNL1       -0.1659
@<TRIPOS>BOND
     1    14    15    1
     2    15    13    1
     3    13     1    1
     4     1     2   ar
     5     2     3   ar
     6     3     4   ar
     7     4     5   ar
     8     5     6   ar
     9     6     7    1
    10     6     8   ar
    11     8    20    1
    12    20    21    1
    13    21    22    1
    14    21    24    1
    15    24    25   ar
    16    25    26   ar
    17    26    27   ar
    18    27    31    1
    19    31    32    1
    20    31    33    1
    21    31    34    1
    22    27    28   ar
    23    28    29   ar
    24    29    30    1
    25     8     9   ar
    26     9    10   ar
    27    15    16    1
    28    16    17    1
    29    16    18    1
    30    16    19    1
    31    10     1   ar
    32     9     4   ar
    33    29    24   ar
    34     7    11    1
    35     7    12    1
    36    22    23    1
@<TRIPOS>MOLECULE
*****
 34 36 0 0 0
SMALL
GASTEIGER

@<TRIPOS>ATOM
      1 C          64.2879   84.1779   14.1789 C.ar    1  UNL1        0.2264
      2 C          63.5223   83.6098   15.3369 C.ar    1  UNL1        0.0594
      3 C          62.9535   84.5243   16.3810 C.ar    1  UNL1        0.0271
      4 C          63.1503   86.0070   16.2671 C.ar    1  UNL1        0.1184
      5 N          62.7095   87.1477   17.1357 N.ar    1  UNL1       -0.2123
      6 C          63.2027   88.4208   16.5145 C.ar    1  UNL1        0.1959
      7 N          62.9879   89.8049   17.0516 N.pl3   1  UNL1       -0.3287
      8 N          63.9483   88.0670   15.2620 N.ar    1  UNL1       -0.2824
      9 C          63.9160   86.5751   15.1091 C.ar    1  UNL1        0.1668
     10 N          64.4848   85.6606   14.0650 N.ar    1  UNL1       -0.1926
     11 H          62.4822   89.9361   17.8860 H       1  UNL1        0.1451
     12 H          63.3526   90.5820   16.5696 H       1  UNL1        0.1451
     13 O          64.8568   83.2634   13.1348 O.3     1  UNL1       -0.4550
     14 C          63.8987   83.1148   10.7245 C.3     1  UNL1        0.0566
     15 C          63.9491   82.6093   12.1358 C.3     1  UNL1        0.2616
     16 C          63.0917   81.4495   12.5481 C.3     1  UNL1        0.4341
     17 F          62.2344   80.2898   12.9604 F       1  UNL1       -0.1664
     18 F          64.2121   80.9222   13.3947 F       1  UNL1       -0.1664
     19 F          61.9714   81.9768   11.7016 F       1  UNL1       -0.1664
     20 C          64.6102   89.0350   14.3267 C.3     1  UNL1        0.1438
     21 C          63.8201   90.1629   13.7321 C.3     1  UNL1        0.1561
     22 O          62.3272   90.1905   13.8761 O.3     1  UNL1       -0.3780
     23 H          62.0362   89.4120   14.3764 H       1  UNL1        0.2109
     24 C          64.5228   91.2632   12.9936 C.ar    1  UNL1        0.0167
     25 C          64.2524   91.4785   11.5339 C.ar    1  UNL1       -0.0011
     26 C          64.9552   92.5788   10.7953 C.ar    1  UNL1        0.0037
     27 C          65.9283   93.4638   11.5163 C.ar    1  UNL1        0.0722
     28 C          66.1986   93.2484   12.9760 C.ar    1  UNL1        0.0150
     29 C          65.4959   92.1481   13.7146 C.ar    1  UNL1        0.0559
     30 CL         65.7663   91.9328   15.1742 Cl      1  UNL1       -0.0825
     31 C          66.6310   94.5641   10.7778 C.3     1  UNL1        0.4186
     32 F          67.3337   95.6644   10.0393 F       1  UNL1       -0.1659
     33 F          66.0948   95.5646   11.7583 F       1  UNL1       -0.1659
     34 F          67.1672   93.5636    9.7972 F       1  UNL1       -0.1659
@<TRIPOS>BOND
     1    14    15    1
     2    15    13    1
     3    13     1    1
     4     1     2   ar
     5     2     3   ar
     6     3     4   ar
     7     4     5   ar
     8     5     6   ar
     9     6     7    1
    10     6     8   ar
    11     8    20    1
    12    20    21    1
    13    21    22    1
    14    21    24    1
    15    24    25   ar
    16    25    26   ar
    17    26    27   ar
    18    27    31    1
    19    31    32    1
    20    31    33    1
    21    31    34    1
    22    27    28   ar
    23    28    29   ar
    24    29    30    1
    25     8     9   ar
    26     9    10   ar
    27    15    16    1
    28    16    17    1
    29    16    18    1
    30    16    19    1
    31    10     1   ar
    32     9     4   ar
    33    29    24   ar
    34     7    11    1
    35     7    12    1
    36    22    23    1
@<TRIPOS>MOLECULE
*****
 34 36 0 0 0
SMALL
GASTEIGER

@<TRIPOS>ATOM
      1 C          61.5890   88.0665   10.9537 C.ar    1  UNL1        0.2264
      2 C          61.3296   89.4180   10.3570 C.ar    1  UNL1        0.0594
      3 C          62.0348   90.6254   10.8999 C.ar    1  UNL1        0.0271
      4 C          62.9994   90.4813   12.0395 C.ar    1  UNL1        0.1184
      5 N          63.8362   91.4828   12.7790 N.ar    1  UNL1       -0.2123
      6 C          64.6128   90.7503   13.8327 C.ar    1  UNL1        0.1959
      7 N          65.5769   91.3642   14.8041 N.pl3   1  UNL1       -0.3287
      8 N          64.2559   89.2960   13.7445 N.ar    1  UNL1       -0.2824
      9 C          63.2588   89.1298   12.6362 C.ar    1  UNL1        0.1668
     10 N          62.5536   87.9224   12.0933 N.ar    1  UNL1       -0.1926
     11 H          65.7458   92.3339   14.7837 H       1  UNL1        0.1451
     12 H          66.0407   90.7975   15.4621 H       1  UNL1        0.1451
     13 O          60.8837   86.8590   10.4108 O.3     1  UNL1       -0.4550
     14 C          60.9495   86.1339    7.9168 C.3     1  UNL1        0.0566
     15 C          61.5086   86.0588    9.3067 C.3     1  UNL1        0.2616
     16 C          62.6927   85.1833    9.5925 C.3     1  UNL1        0.4341
     17 F          63.8767   84.3079    9.8782 F       1  UNL1       -0.1664
     18 F          62.0656   84.7575   10.8868 F       1  UNL1       -0.1664
     19 F          63.3198   85.6091    8.2981 F       1  UNL1       -0.1664
     20 C          64.8006   88.2003   14.6121 C.3     1  UNL1        0.1438
     21 C          63.8649   87.3348   15.4030 C.3     1  UNL1        0.1561
     22 O          63.1395   87.9014   16.5874 O.3     1  UNL1       -0.3780
     23 H          63.3865   88.8323   16.7028 H       1  UNL1        0.2109
     24 C          63.6548   85.9027   15.0095 C.ar    1  UNL1        0.0167
     25 C          64.3137   85.3594   13.7763 C.ar    1  UNL1       -0.0011
     26 C          64.1036   83.9272   13.3827 C.ar    1  UNL1        0.0037
     27 C          63.2346   83.0384   14.2222 C.ar    1  UNL1        0.0722
     28 C          62.5757   83.5818   15.4554 C.ar    1  UNL1        0.0150
     29 C          62.7857   85.0139   15.8490 C.ar    1  UNL1        0.0559
     30 CL         62.1268   85.5572   17.0822 Cl      1  UNL1       -0.0825
     31 C          63.0244   81.6064   13.8287 C.3     1  UNL1        0.4186
     32 F          62.8142   80.1743   13.4352 F       1  UNL1       -0.1659
     33 F          61.7392   81.5826   14.6017 F       1  UNL1       -0.1659
     34 F          64.3096   81.6301   13.0556 F       1  UNL1       -0.1659
@<TRIPOS>BOND
     1    14    15    1
     2    15    13    1
     3    13     1    1
     4     1     2   ar
     5     2     3   ar
     6     3     4   ar
     7     4     5   ar
     8     5     6   ar
     9     6     7    1
    10     6     8   ar
    11     8    20    1
    12    20    21    1
    13    21    22    1
    14    21    24    1
    15    24    25   ar
    16    25    26   ar
    17    26    27   ar
    18    27    31    1
    19    31    32    1
    20    31    33    1
    21    31    34    1
    22    27    28   ar
    23    28    29   ar
    24    29    30    1
    25     8     9   ar
    26     9    10   ar
    27    15    16    1
    28    16    17    1
    29    16    18    1
    30    16    19    1
    31    10     1   ar
    32     9     4   ar
    33    29    24   ar
    34     7    11    1
    35     7    12    1
    36    22    23    1
@<TRIPOS>MOLECULE
*****
 34 36 0 0 0
SMALL
GASTEIGER

@<TRIPOS>ATOM
      1 C          61.8726   89.3330   11.2189 C.ar    1  UNL1        0.2264
      2 C          62.0782   90.2847   10.0779 C.ar    1  UNL1        0.0594
      3 C          63.1309   91.3494   10.1696 C.ar    1  UNL1        0.0271
      4 C          63.9779   91.4623   11.4023 C.ar    1  UNL1        0.1184
      5 N          65.0846   92.4030   11.7770 N.ar    1  UNL1       -0.2123
      6 C          65.5630   92.0326   13.1496 C.ar    1  UNL1        0.1959
      7 N          66.6598   92.7125   13.9143 N.pl3   1  UNL1       -0.3287
      8 N          64.7519   90.8631   13.6233 N.ar    1  UNL1       -0.2824
      9 C          63.7723   90.5106   12.5433 C.ar    1  UNL1        0.1668
     10 N          62.7196   89.4460   12.4516 N.ar    1  UNL1       -0.1926
     11 H          67.1366   93.4766   13.5167 H       1  UNL1        0.1451
     12 H          66.9029   92.3947   14.8139 H       1  UNL1        0.1451
     13 O          60.8199   88.2684   11.1271 O.3     1  UNL1       -0.4550
     14 C          60.0582   87.1095    8.9302 C.3     1  UNL1        0.0566
     15 C          60.9604   87.1589   10.1275 C.3     1  UNL1        0.2616
     16 C          62.0030   86.0988   10.3252 C.3     1  UNL1        0.4341
     17 F          63.0457   85.0387   10.5229 F       1  UNL1       -0.1664
     18 F          61.4414   85.7996   11.6835 F       1  UNL1       -0.1664
     19 F          62.5647   86.3979    8.9669 F       1  UNL1       -0.1664
     20 C          64.8953   90.1680   14.9448 C.3     1  UNL1        0.1438
     21 C          63.7577   89.3592   15.4941 C.3     1  UNL1        0.1561
     22 O          62.6288   90.0412   16.2084 O.3     1  UNL1       -0.3780
     23 H          62.7889   90.9978   16.2271 H       1  UNL1        0.2109
     24 C          63.7492   87.8684   15.3290 C.ar    1  UNL1        0.0167
     25 C          64.1557   87.2563   14.0213 C.ar    1  UNL1       -0.0011
     26 C          64.1472   85.7654   13.8561 C.ar    1  UNL1        0.0037
     27 C          63.7321   84.8866   14.9987 C.ar    1  UNL1        0.0722
     28 C          63.3255   85.4988   16.3064 C.ar    1  UNL1        0.0150
     29 C          63.3341   86.9896   16.4716 C.ar    1  UNL1        0.0559
     30 CL         62.9275   87.6017   17.7793 Cl      1  UNL1       -0.0825
     31 C          63.7236   83.3958   14.8336 C.3     1  UNL1        0.4186
     32 F          63.7149   81.9049   14.6686 F       1  UNL1       -0.1659
     33 F          62.5817   83.2953   15.8011 F       1  UNL1       -0.1659
     34 F          64.8654   83.4962   13.8661 F       1  UNL1       -0.1659
@<TRIPOS>BOND
     1    14    15    1
     2    15    13    1
     3    13     1    1
     4     1     2   ar
     5     2     3   ar
     6     3     4   ar
     7     4     5   ar
     8     5     6   ar
     9     6     7    1
    10     6     8   ar
    11     8    20    1
    12    20    21    1
    13    21    22    1
    14    21    24    1
    15    24    25   ar
    16    25    26   ar
    17    26    27   ar
    18    27    31    1
    19    31    32    1
    20    31    33    1
    21    31    34    1
    22    27    28   ar
    23    28    29   ar
    24    29    30    1
    25     8     9   ar
    26     9    10   ar
    27    15    16    1
    28    16    17    1
    29    16    18    1
    30    16    19    1
    31    10     1   ar
    32     9     4   ar
    33    29    24   ar
    34     7    11    1
    35     7    12    1
    36    22    23    1
