@<TRIPOS>MOLECULE
*****
 24 26 0 0 0
SMALL
GASTEIGER

@<TRIPOS>ATOM
      1 C          60.3798   87.5587    9.6693 C.2     1  UNL1        0.0428
      2 C          61.4376   86.5046    9.5278 C.2     1  UNL1       -0.0145
      3 C          62.2523   86.2326    8.2980 C.3     1  UNL1        0.0458
      4 C          63.1846   85.0974    8.6014 C.3     1  UNL1        0.0984
      5 N          62.9461   84.6677   10.0186 N.am    1  UNL1       -0.2719
      6 C          63.6617   83.5625   10.7371 C.2     1  UNL1        0.2493
      7 O          64.7250   82.7743   10.0314 O.2     1  UNL1       -0.2699
      8 C          61.8664   85.5375   10.5911 C.3     1  UNL1        0.1169
      9 C          63.3138   83.2454   12.1614 C.ar    1  UNL1        0.0544
     10 C          63.9604   84.0087   13.2791 C.ar    1  UNL1        0.0046
     11 C          63.6126   83.6917   14.7034 C.ar    1  UNL1        0.0010
     12 C          62.6182   82.6113   15.0099 C.ar    1  UNL1        0.0114
     13 C          61.9717   81.8479   13.8922 C.ar    1  UNL1        0.0578
     14 CL         60.9773   80.7675   14.1987 Cl      1  UNL1       -0.0822
     15 C          62.3195   82.1650   12.4680 C.ar    1  UNL1        0.0159
     16 C          59.7352   89.3569    7.3560 C.1     1  UNL1       -0.0405
     17 C          60.0575   88.4578    8.5126 C.1     1  UNL1       -0.0582
     18 C          61.2974   92.2293    3.3176 C.3     1  UNL1        0.0521
     19 C          60.1940   91.6921    4.1801 C.ar    1  UNL1        0.0600
     20 C          58.7684   92.0541    3.8861 C.ar    1  UNL1        0.0148
     21 C          57.6650   91.5170    4.7487 C.ar    1  UNL1        0.0034
     22 C          57.9872   90.6179    5.9053 C.ar    1  UNL1        0.0276
     23 C          59.4129   90.2560    6.1993 C.ar    1  UNL1        0.1224
     24 N          60.5162   90.7931    5.3368 N.ar    1  UNL1       -0.2414
@<TRIPOS>BOND
     1    18    19    1
     2    19    20   ar
     3    20    21   ar
     4    21    22   ar
     5    22    23   ar
     6    23    16    1
     7    16    17    3
     8    17     1    1
     9     1     2    2
    10     2     3    1
    11     3     4    1
    12     4     5    1
    13     5     6   am
    14     6     7    2
    15     6     9    1
    16     9    10   ar
    17    10    11   ar
    18    11    12   ar
    19    12    13   ar
    20    13    14    1
    21    13    15   ar
    22     5     8    1
    23    23    24   ar
    24    24    19   ar
    25     8     2    1
    26    15     9   ar
@<TRIPOS>MOLECULE
*****
 24 26 0 0 0
SMALL
GASTEIGER

@<TRIPOS>ATOM
      1 C          60.1525   86.5077    8.5224 C.2     1  UNL1        0.0428
      2 C          61.0663   86.6803    9.6993 C.2     1  UNL1       -0.0145
      3 C          61.7294   87.9581   10.1209 C.3     1  UNL1        0.0458
      4 C          62.5503   87.6729   11.3435 C.3     1  UNL1        0.0984
      5 N          62.3946   86.2189   11.6775 N.am    1  UNL1       -0.2719
      6 C          63.0424   85.5039   12.8260 C.2     1  UNL1        0.2493
      7 O          63.9405   86.2530   13.7653 O.2     1  UNL1       -0.2699
      8 C          61.4775   85.6055   10.6614 C.3     1  UNL1        0.1169
      9 C          62.7920   84.0398   13.0353 C.ar    1  UNL1        0.0544
     10 C          62.3110   83.5439   14.3667 C.ar    1  UNL1        0.0046
     11 C          62.0606   82.0798   14.5759 C.ar    1  UNL1        0.0010
     12 C          62.2913   81.1116   13.4537 C.ar    1  UNL1        0.0114
     13 C          62.7723   81.6075   12.1223 C.ar    1  UNL1        0.0578
     14 CL         63.0030   80.6393   11.0000 Cl      1  UNL1       -0.0822
     15 C          63.0227   83.0716   11.9131 C.ar    1  UNL1        0.0159
     16 C          59.5084   88.8537    6.7669 C.1     1  UNL1       -0.0405
     17 C          59.8304   87.6807    7.6446 C.1     1  UNL1       -0.0582
     18 C          61.0366   92.5253    3.4226 C.3     1  UNL1        0.0521
     19 C          59.9505   91.8624    4.2169 C.ar    1  UNL1        0.0600
     20 C          58.5424   92.3725    4.1335 C.ar    1  UNL1        0.0148
     21 C          57.4562   91.7097    4.9279 C.ar    1  UNL1        0.0034
     22 C          57.7782   90.5367    5.8056 C.ar    1  UNL1        0.0276
     23 C          59.1863   90.0267    5.8891 C.ar    1  UNL1        0.1224
     24 N          60.2725   90.6895    5.0947 N.ar    1  UNL1       -0.2414
@<TRIPOS>BOND
     1    18    19    1
     2    19    20   ar
     3    20    21   ar
     4    21    22   ar
     5    22    23   ar
     6    23    16    1
     7    16    17    3
     8    17     1    1
     9     1     2    2
    10     2     3    1
    11     3     4    1
    12     4     5    1
    13     5     6   am
    14     6     7    2
    15     6     9    1
    16     9    10   ar
    17    10    11   ar
    18    11    12   ar
    19    12    13   ar
    20    13    14    1
    21    13    15   ar
    22     5     8    1
    23    23    24   ar
    24    24    19   ar
    25     8     2    1
    26    15     9   ar
@<TRIPOS>MOLECULE
*****
 24 26 0 0 0
SMALL
GASTEIGER

@<TRIPOS>ATOM
      1 C          60.4402   87.5350    9.8045 C.2     1  UNL1        0.0428
      2 C          61.4624   86.4500    9.6378 C.2     1  UNL1       -0.0145
      3 C          62.2173   86.1355    8.3802 C.3     1  UNL1        0.0458
      4 C          63.1307   84.9801    8.6646 C.3     1  UNL1        0.0984
      5 N          62.9405   84.5806   10.0979 N.am    1  UNL1       -0.2719
      6 C          63.6557   83.4681   10.8054 C.2     1  UNL1        0.2493
      7 O          64.6670   82.6394   10.0701 O.2     1  UNL1       -0.2699
      8 C          61.9094   85.4891   10.6993 C.3     1  UNL1        0.1169
      9 C          63.3596   83.1842   12.2482 C.ar    1  UNL1        0.0544
     10 C          62.6321   81.9298   12.6318 C.ar    1  UNL1        0.0046
     11 C          62.3361   81.6459   14.0747 C.ar    1  UNL1        0.0010
     12 C          62.7675   82.6164   15.1339 C.ar    1  UNL1        0.0114
     13 C          63.4950   83.8708   14.7503 C.ar    1  UNL1        0.0578
     14 CL         63.9265   84.8414   15.8095 Cl      1  UNL1       -0.0822
     15 C          63.7911   84.1547   13.3074 C.ar    1  UNL1        0.0159
     16 C          59.7475   89.3119    7.4887 C.1     1  UNL1       -0.0405
     17 C          60.0938   88.4234    8.6466 C.1     1  UNL1       -0.0582
     18 C          56.1873   91.7643    4.6059 C.3     1  UNL1        0.0521
     19 C          57.6210   91.4265    4.8894 C.ar    1  UNL1        0.0600
     20 C          58.7083   91.9771    4.0151 C.ar    1  UNL1        0.0148
     21 C          60.1420   91.6394    4.2986 C.ar    1  UNL1        0.0034
     22 C          60.4884   90.7510    5.4564 C.ar    1  UNL1        0.0276
     23 C          59.4011   90.2003    6.3308 C.ar    1  UNL1        0.1224
     24 N          57.9674   90.5381    6.0473 N.ar    1  UNL1       -0.2414
@<TRIPOS>BOND
     1    18    19    1
     2    19    20   ar
     3    20    21   ar
     4    21    22   ar
     5    22    23   ar
     6    23    16    1
     7    16    17    3
     8    17     1    1
     9     1     2    2
    10     2     3    1
    11     3     4    1
    12     4     5    1
    13     5     6   am
    14     6     7    2
    15     6     9    1
    16     9    10   ar
    17    10    11   ar
    18    11    12   ar
    19    12    13   ar
    20    13    14    1
    21    13    15   ar
    22     5     8    1
    23    23    24   ar
    24    24    19   ar
    25     8     2    1
    26    15     9   ar
@<TRIPOS>MOLECULE
*****
 24 26 0 0 0
SMALL
GASTEIGER

@<TRIPOS>ATOM
      1 C          60.2291   86.3511    8.5577 C.2     1  UNL1        0.0428
      2 C          61.1150   86.5115    9.7575 C.2     1  UNL1       -0.0145
      3 C          61.7412   87.7914   10.2264 C.3     1  UNL1        0.0458
      4 C          62.5435   87.4910   11.4578 C.3     1  UNL1        0.0984
      5 N          62.4132   86.0255   11.7498 N.am    1  UNL1       -0.2719
      6 C          63.0534   85.2939   12.8921 C.2     1  UNL1        0.2493
      7 O          63.9157   86.0365   13.8693 O.2     1  UNL1       -0.2699
      8 C          61.5304   85.4202   10.6990 C.3     1  UNL1        0.1169
      9 C          62.8312   83.8196   13.0571 C.ar    1  UNL1        0.0544
     10 C          62.3961   83.2706   14.3835 C.ar    1  UNL1        0.0046
     11 C          62.1739   81.7963   14.5485 C.ar    1  UNL1        0.0010
     12 C          62.3869   80.8711   13.3872 C.ar    1  UNL1        0.0114
     13 C          62.8220   81.4202   12.0609 C.ar    1  UNL1        0.0578
     14 CL         63.0349   80.4949   10.8995 Cl      1  UNL1       -0.0822
     15 C          63.0441   82.8944   11.8958 C.ar    1  UNL1        0.0159
     16 C          59.5688   88.7292    6.8521 C.1     1  UNL1       -0.0405
     17 C          59.8990   87.5402    7.7049 C.1     1  UNL1       -0.0582
     18 C          56.0463   91.8965    4.7167 C.3     1  UNL1        0.0521
     19 C          57.4774   91.5018    4.9316 C.ar    1  UNL1        0.0600
     20 C          58.5783   92.2962    4.2938 C.ar    1  UNL1        0.0148
     21 C          60.0095   91.9015    4.5086 C.ar    1  UNL1        0.0034
     22 C          60.3396   90.7125    5.3614 C.ar    1  UNL1        0.0276
     23 C          59.2387   89.9182    5.9993 C.ar    1  UNL1        0.1224
     24 N          57.8076   90.3129    5.7844 N.ar    1  UNL1       -0.2414
@<TRIPOS>BOND
     1    18    19    1
     2    19    20   ar
     3    20    21   ar
     4    21    22   ar
     5    22    23   ar
     6    23    16    1
     7    16    17    3
     8    17     1    1
     9     1     2    2
    10     2     3    1
    11     3     4    1
    12     4     5    1
    13     5     6   am
    14     6     7    2
    15     6     9    1
    16     9    10   ar
    17    10    11   ar
    18    11    12   ar
    19    12    13   ar
    20    13    14    1
    21    13    15   ar
    22     5     8    1
    23    23    24   ar
    24    24    19   ar
    25     8     2    1
    26    15     9   ar
@<TRIPOS>MOLECULE
*****
 24 26 0 0 0
SMALL
GASTEIGER

@<TRIPOS>ATOM
      1 C          64.4804   85.9463   15.1822 C.2     1  UNL1        0.0428
      2 C          64.2238   87.1531   14.3292 C.2     1  UNL1       -0.0145
      3 C          63.3622   87.1984   13.1021 C.3     1  UNL1        0.0458
      4 C          63.3896   88.5999   12.5680 C.3     1  UNL1        0.0984
      5 N          64.2681   89.4207   13.4651 N.am    1  UNL1       -0.2719
      6 C          64.5767   90.8795   13.3022 C.2     1  UNL1        0.2493
      7 O          63.9850   91.6482   12.1581 O.2     1  UNL1       -0.2699
      8 C          64.7836   88.5265   14.5535 C.3     1  UNL1        0.1169
      9 C          65.4772   91.5696   14.2835 C.ar    1  UNL1        0.0544
     10 C          64.9343   92.0314   15.6033 C.ar    1  UNL1        0.0046
     11 C          65.8348   92.7216   16.5846 C.ar    1  UNL1        0.0010
     12 C          67.2781   92.9500   16.2461 C.ar    1  UNL1        0.0114
     13 C          67.8210   92.4882   14.9262 C.ar    1  UNL1        0.0578
     14 CL         69.2644   92.7165   14.5876 Cl      1  UNL1       -0.0822
     15 C          66.9205   91.7980   13.9449 C.ar    1  UNL1        0.0159
     16 C          63.2155   83.3177   14.4815 C.1     1  UNL1       -0.0405
     17 C          63.8479   84.6320   14.8318 C.1     1  UNL1       -0.0582
     18 C          59.0613   80.1970   14.4208 C.3     1  UNL1        0.0521
     19 C          60.5059   80.4431   14.1008 C.ar    1  UNL1        0.0600
     20 C          61.3181   79.3750   13.4304 C.ar    1  UNL1        0.0148
     21 C          62.7628   79.6211   13.1104 C.ar    1  UNL1        0.0034
     22 C          63.3952   80.9353   13.4608 C.ar    1  UNL1        0.0276
     23 C          62.5831   82.0034   14.1311 C.ar    1  UNL1        0.1224
     24 N          61.1384   81.7573   14.4511 N.ar    1  UNL1       -0.2414
@<TRIPOS>BOND
     1    18    19    1
     2    19    20   ar
     3    20    21   ar
     4    21    22   ar
     5    22    23   ar
     6    23    16    1
     7    16    17    3
     8    17     1    1
     9     1     2    2
    10     2     3    1
    11     3     4    1
    12     4     5    1
    13     5     6   am
    14     6     7    2
    15     6     9    1
    16     9    10   ar
    17    10    11   ar
    18    11    12   ar
    19    12    13   ar
    20    13    14    1
    21    13    15   ar
    22     5     8    1
    23    23    24   ar
    24    24    19   ar
    25     8     2    1
    26    15     9   ar
@<TRIPOS>MOLECULE
*****
 24 26 0 0 0
SMALL
GASTEIGER

@<TRIPOS>ATOM
      1 C          60.7716   87.0283    9.0465 C.2     1  UNL1        0.0428
      2 C          61.6293   87.4317   10.2091 C.2     1  UNL1       -0.0145
      3 C          62.1134   88.8197   10.5079 C.3     1  UNL1        0.0458
      4 C          62.9368   88.7637   11.7605 C.3     1  UNL1        0.0984
      5 N          62.9617   87.3412   12.2358 N.am    1  UNL1       -0.2719
      6 C          63.6702   86.8315   13.4556 C.2     1  UNL1        0.2493
      7 O          64.4437   87.7787   14.3243 O.2     1  UNL1       -0.2699
      8 C          62.1536   86.5180   11.2769 C.3     1  UNL1        0.1169
      9 C          63.6053   85.3747   13.8067 C.ar    1  UNL1        0.0544
     10 C          63.2406   84.9544   15.1997 C.ar    1  UNL1        0.0046
     11 C          63.1757   83.4976   15.5509 C.ar    1  UNL1        0.0010
     12 C          63.4754   82.4609   14.5090 C.ar    1  UNL1        0.0114
     13 C          63.8401   82.8811   13.1160 C.ar    1  UNL1        0.0578
     14 CL         64.1398   81.8444   12.0741 Cl      1  UNL1       -0.0822
     15 C          63.9050   84.3380   12.7649 C.ar    1  UNL1        0.0159
     16 C          59.8707   89.0888    7.0608 C.1     1  UNL1       -0.0405
     17 C          60.3212   88.0586    8.0537 C.1     1  UNL1       -0.0582
     18 C          60.9740   92.4861    3.2871 C.3     1  UNL1        0.0521
     19 C          59.9720   91.8177    4.1811 C.ar    1  UNL1        0.0600
     20 C          58.5197   92.1795    4.0822 C.ar    1  UNL1        0.0148
     21 C          57.5177   91.5110    4.9762 C.ar    1  UNL1        0.0034
     22 C          57.9680   90.4808    5.9691 C.ar    1  UNL1        0.0276
     23 C          59.4203   90.1190    6.0679 C.ar    1  UNL1        0.1224
     24 N          60.4223   90.7875    5.1739 N.ar    1  UNL1       -0.2414
@<TRIPOS>BOND
     1    18    19    1
     2    19    20   ar
     3    20    21   ar
     4    21    22   ar
     5    22    23   ar
     6    23    16    1
     7    16    17    3
     8    17     1    1
     9     1     2    2
    10     2     3    1
    11     3     4    1
    12     4     5    1
    13     5     6   am
    14     6     7    2
    15     6     9    1
    16     9    10   ar
    17    10    11   ar
    18    11    12   ar
    19    12    13   ar
    20    13    14    1
    21    13    15   ar
    22     5     8    1
    23    23    24   ar
    24    24    19   ar
    25     8     2    1
    26    15     9   ar
@<TRIPOS>MOLECULE
*****
 24 26 0 0 0
SMALL
GASTEIGER

@<TRIPOS>ATOM
      1 C          60.9249   88.3632    9.8925 C.2     1  UNL1        0.0428
      2 C          61.9015   89.0153   10.8258 C.2     1  UNL1       -0.0145
      3 C          62.4981   90.3820   10.6637 C.3     1  UNL1        0.0458
      4 C          63.4182   90.6266   11.8229 C.3     1  UNL1        0.0984
      5 N          63.3903   89.4110   12.7014 N.am    1  UNL1       -0.2719
      6 C          64.1639   89.2242   13.9727 C.2     1  UNL1        0.2493
      7 O          65.0674   90.3143   14.4680 O.2     1  UNL1       -0.2699
      8 C          62.4529   88.4153   12.0852 C.3     1  UNL1        0.1169
      9 C          64.0341   87.9472   14.7489 C.ar    1  UNL1        0.0544
     10 C          64.5344   86.6598   14.1638 C.ar    1  UNL1        0.0046
     11 C          64.4045   85.3827   14.9399 C.ar    1  UNL1        0.0010
     12 C          63.7744   85.3931   16.3011 C.ar    1  UNL1        0.0114
     13 C          63.2740   86.6805   16.8861 C.ar    1  UNL1        0.0578
     14 CL         62.6438   86.6909   18.2473 Cl      1  UNL1       -0.0822
     15 C          63.4039   87.9575   16.1100 C.ar    1  UNL1        0.0159
     16 C          59.9968   89.8164    7.4376 C.1     1  UNL1       -0.0405
     17 C          60.4608   89.0899    8.6650 C.1     1  UNL1       -0.0582
     18 C          61.0752   92.4114    3.0669 C.3     1  UNL1        0.0521
     19 C          60.0719   91.8406    4.0248 C.ar    1  UNL1        0.0600
     20 C          58.6046   91.9964    3.7552 C.ar    1  UNL1        0.0148
     21 C          57.6013   91.4255    4.7131 C.ar    1  UNL1        0.0034
     22 C          58.0654   90.6989    5.9406 C.ar    1  UNL1        0.0276
     23 C          59.5327   90.5431    6.2101 C.ar    1  UNL1        0.1224
     24 N          60.5359   91.1139    5.2522 N.ar    1  UNL1       -0.2414
@<TRIPOS>BOND
     1    18    19    1
     2    19    20   ar
     3    20    21   ar
     4    21    22   ar
     5    22    23   ar
     6    23    16    1
     7    16    17    3
     8    17     1    1
     9     1     2    2
    10     2     3    1
    11     3     4    1
    12     4     5    1
    13     5     6   am
    14     6     7    2
    15     6     9    1
    16     9    10   ar
    17    10    11   ar
    18    11    12   ar
    19    12    13   ar
    20    13    14    1
    21    13    15   ar
    22     5     8    1
    23    23    24   ar
    24    24    19   ar
    25     8     2    1
    26    15     9   ar
@<TRIPOS>MOLECULE
*****
 24 26 0 0 0
SMALL
GASTEIGER

@<TRIPOS>ATOM
      1 C          60.8847   88.3533   10.0524 C.2     1  UNL1        0.0428
      2 C          61.8862   88.9995   10.9632 C.2     1  UNL1       -0.0145
      3 C          62.5219   90.3433   10.7628 C.3     1  UNL1        0.0458
      4 C          63.4564   90.5896   11.9100 C.3     1  UNL1        0.0984
      5 N          63.3982   89.3981   12.8194 N.am    1  UNL1       -0.2719
      6 C          64.1742   89.2206   14.0907 C.2     1  UNL1        0.2493
      7 O          65.1128   90.2955   14.5528 O.2     1  UNL1       -0.2699
      8 C          62.4277   88.4154   12.2342 C.3     1  UNL1        0.1169
      9 C          64.0116   87.9681   14.8999 C.ar    1  UNL1        0.0544
     10 C          63.3915   88.0318   16.2642 C.ar    1  UNL1        0.0046
     11 C          63.2289   86.7793   17.0734 C.ar    1  UNL1        0.0010
     12 C          63.6865   85.4630   16.5183 C.ar    1  UNL1        0.0114
     13 C          64.3066   85.3993   15.1540 C.ar    1  UNL1        0.0578
     14 CL         64.7642   84.0830   14.5988 Cl      1  UNL1       -0.0822
     15 C          64.4692   86.6518   14.3448 C.ar    1  UNL1        0.0159
     16 C          59.9840   89.7709    7.5666 C.1     1  UNL1       -0.0405
     17 C          60.4343   89.0621    8.8095 C.1     1  UNL1       -0.0582
     18 C          56.1600   91.6579    4.5974 C.3     1  UNL1        0.0521
     19 C          57.6216   91.4232    4.8391 C.ar    1  UNL1        0.0600
     20 C          58.6330   91.8972    3.8379 C.ar    1  UNL1        0.0148
     21 C          60.0946   91.6625    4.0796 C.ar    1  UNL1        0.0034
     22 C          60.5450   90.9537    5.3224 C.ar    1  UNL1        0.0276
     23 C          59.5337   90.4797    6.3236 C.ar    1  UNL1        0.1224
     24 N          58.0720   90.7144    6.0820 N.ar    1  UNL1       -0.2414
@<TRIPOS>BOND
     1    18    19    1
     2    19    20   ar
     3    20    21   ar
     4    21    22   ar
     5    22    23   ar
     6    23    16    1
     7    16    17    3
     8    17     1    1
     9     1     2    2
    10     2     3    1
    11     3     4    1
    12     4     5    1
    13     5     6   am
    14     6     7    2
    15     6     9    1
    16     9    10   ar
    17    10    11   ar
    18    11    12   ar
    19    12    13   ar
    20    13    14    1
    21    13    15   ar
    22     5     8    1
    23    23    24   ar
    24    24    19   ar
    25     8     2    1
    26    15     9   ar
@<TRIPOS>MOLECULE
*****
 24 26 0 0 0
SMALL
GASTEIGER

@<TRIPOS>ATOM
      1 C          64.5374   85.6333   14.6678 C.2     1  UNL1        0.0428
      2 C          64.1530   86.8881   13.9413 C.2     1  UNL1       -0.0145
      3 C          63.3198   86.9661   12.6963 C.3     1  UNL1        0.0458
      4 C          63.1862   88.4114   12.3179 C.3     1  UNL1        0.0984
      5 N          63.9367   89.2266   13.3289 N.am    1  UNL1       -0.2719
      6 C          64.0668   90.7209   13.3354 C.2     1  UNL1        0.2493
      7 O          63.4104   91.5356   12.2605 O.2     1  UNL1       -0.2699
      8 C          64.5342   88.2852   14.3322 C.3     1  UNL1        0.1169
      9 C          64.8534   91.4005   14.4168 C.ar    1  UNL1        0.0544
     10 C          64.2309   91.6380   15.7607 C.ar    1  UNL1        0.0046
     11 C          65.0175   92.3176   16.8421 C.ar    1  UNL1        0.0010
     12 C          66.4266   92.7598   16.5796 C.ar    1  UNL1        0.0114
     13 C          67.0491   92.5223   15.2357 C.ar    1  UNL1        0.0578
     14 CL         68.4583   92.9645   14.9732 Cl      1  UNL1       -0.0822
     15 C          66.2625   91.8427   14.1543 C.ar    1  UNL1        0.0159
     16 C          63.6219   82.9665   13.6431 C.1     1  UNL1       -0.0405
     17 C          64.0796   84.2999   14.1554 C.1     1  UNL1       -0.0582
     18 C          62.9396   79.6544    9.6979 C.3     1  UNL1        0.0521
     19 C          62.8230   79.9770   11.1581 C.ar    1  UNL1        0.0600
     20 C          62.2486   78.9663   12.1060 C.ar    1  UNL1        0.0148
     21 C          62.1320   79.2889   13.5662 C.ar    1  UNL1        0.0034
     22 C          62.5898   80.6223   14.0786 C.ar    1  UNL1        0.0276
     23 C          63.1641   81.6330   13.1308 C.ar    1  UNL1        0.1224
     24 N          63.2807   81.3104   11.6705 N.ar    1  UNL1       -0.2414
@<TRIPOS>BOND
     1    18    19    1
     2    19    20   ar
     3    20    21   ar
     4    21    22   ar
     5    22    23   ar
     6    23    16    1
     7    16    17    3
     8    17     1    1
     9     1     2    2
    10     2     3    1
    11     3     4    1
    12     4     5    1
    13     5     6   am
    14     6     7    2
    15     6     9    1
    16     9    10   ar
    17    10    11   ar
    18    11    12   ar
    19    12    13   ar
    20    13    14    1
    21    13    15   ar
    22     5     8    1
    23    23    24   ar
    24    24    19   ar
    25     8     2    1
    26    15     9   ar
