@<TRIPOS>MOLECULE
*****
 23 25 0 0 0
SMALL
GASTEIGER

@<TRIPOS>ATOM
      1 C          62.7203   89.1095   11.1368 C.2     1  UNL1        0.2270
      2 O          63.1723   88.2166   12.2542 O.2     1  UNL1       -0.2747
      3 N          63.1225   90.5544   11.1218 N.am    1  UNL1       -0.2641
      4 H          62.8258   91.1404   10.3884 H       1  UNL1        0.1567
      5 C          63.9768   91.1066   12.2242 C.ar    1  UNL1        0.1655
      6 N          63.6934   91.0062   13.6938 N.ar    1  UNL1       -0.2239
      7 C          64.8059   91.6937   14.4285 C.ar    1  UNL1        0.0893
      8 C          65.0602   91.9092   15.8910 C.ar    1  UNL1        0.0202
      9 C          66.2854   92.6501   16.3379 C.ar    1  UNL1        0.0083
     10 C          67.2564   93.1754   15.3224 C.ar    1  UNL1        0.0352
     11 BR         68.4817   93.9163   15.7694 Br      1  UNL1       -0.0490
     12 C          67.0021   92.9599   13.8599 C.ar    1  UNL1        0.0148
     13 C          65.7768   92.2190   13.4130 C.ar    1  UNL1        0.0502
     14 S          65.2644   91.8562   12.0507 S.2     1  UNL1       -0.0514
     15 C          59.0732   89.7906    7.4988 C.3     1  UNL1        0.0000
     16 C          60.0425   88.8979    8.2153 C.3     1  UNL1        0.0005
     17 C          60.8967   89.4501    9.3178 C.3     1  UNL1        0.0091
     18 C          61.8660   88.5573   10.0344 C.3     1  UNL1        0.0769
     19 C          61.9810   87.1124    9.6485 C.3     1  UNL1        0.0091
     20 C          61.1268   86.5602    8.5461 C.3     1  UNL1        0.0005
     21 C          61.8917   85.3269    8.9256 C.3     1  UNL1        0.0000
     22 C          60.5382   85.5797    7.5755 C.3     1  UNL1        0.0000
     23 C          60.1575   87.4529    7.8295 C.3     1  UNL1        0.0000
@<TRIPOS>BOND
     1    15    16    1
     2    16    17    1
     3    17    18    1
     4    18     1    1
     5     1     2    2
     6     1     3   am
     7     3     5    1
     8     5     6   ar
     9     6     7   ar
    10     7     8   ar
    11     8     9   ar
    12     9    10   ar
    13    10    11    1
    14    10    12   ar
    15    12    13   ar
    16    13    14   ar
    17    18    19    1
    18    19    20    1
    19    20    21    1
    20    20    22    1
    21    20    23    1
    22    23    16    1
    23    14     5   ar
    24    13     7   ar
    25     3     4    1
@<TRIPOS>MOLECULE
*****
 23 25 0 0 0
SMALL
GASTEIGER

@<TRIPOS>ATOM
      1 C          64.3392   90.4651   13.3065 C.2     1  UNL1        0.2270
      2 O          63.3430   90.9114   12.2776 O.2     1  UNL1       -0.2747
      3 N          65.6136   91.2326   13.4989 N.am    1  UNL1       -0.2641
      4 H          66.2674   90.9397   14.1742 H       1  UNL1        0.1567
      5 C          65.8918   92.4462   12.6625 C.ar    1  UNL1        0.1655
      6 N          65.8359   93.8706   13.1295 N.ar    1  UNL1       -0.2239
      7 C          66.1843   94.7533   11.9678 C.ar    1  UNL1        0.0893
      8 C          66.2896   96.2438   11.8359 C.ar    1  UNL1        0.0202
      9 C          66.6662   96.8554   10.5191 C.ar    1  UNL1        0.0083
     10 C          66.9375   95.9766    9.3342 C.ar    1  UNL1        0.0352
     11 BR         67.3141   96.5883    8.0173 Br      1  UNL1       -0.0490
     12 C          66.8322   94.4861    9.4661 C.ar    1  UNL1        0.0148
     13 C          66.4556   93.8745   10.7829 C.ar    1  UNL1        0.0502
     14 S          66.2748   92.4487   11.2122 S.2     1  UNL1       -0.0514
     15 C          64.1426   85.2974   13.8127 C.3     1  UNL1        0.0000
     16 C          63.9627   86.6676   14.3960 C.3     1  UNL1        0.0005
     17 C          64.2409   87.8813   13.5596 C.3     1  UNL1        0.0091
     18 C          64.0610   89.2515   14.1429 C.3     1  UNL1        0.0769
     19 C          63.6029   89.4080   15.5626 C.3     1  UNL1        0.0091
     20 C          63.3247   88.1943   16.3991 C.3     1  UNL1        0.0005
     21 C          63.0103   89.2731   17.3927 C.3     1  UNL1        0.0000
     22 C          62.9373   87.3553   17.5805 C.3     1  UNL1        0.0000
     23 C          63.5046   86.8241   15.8158 C.3     1  UNL1        0.0000
@<TRIPOS>BOND
     1    15    16    1
     2    16    17    1
     3    17    18    1
     4    18     1    1
     5     1     2    2
     6     1     3   am
     7     3     5    1
     8     5     6   ar
     9     6     7   ar
    10     7     8   ar
    11     8     9   ar
    12     9    10   ar
    13    10    11    1
    14    10    12   ar
    15    12    13   ar
    16    13    14   ar
    17    18    19    1
    18    19    20    1
    19    20    21    1
    20    20    22    1
    21    20    23    1
    22    23    16    1
    23    14     5   ar
    24    13     7   ar
    25     3     4    1
@<TRIPOS>MOLECULE
*****
 23 25 0 0 0
SMALL
GASTEIGER

@<TRIPOS>ATOM
      1 C          63.9858   88.7352   13.5731 C.2     1  UNL1        0.2270
      2 O          63.0490   88.5676   12.4135 O.2     1  UNL1       -0.2747
      3 N          64.3810   87.5451   14.3961 N.am    1  UNL1       -0.2641
      4 H          64.9958   87.6551   15.1571 H       1  UNL1        0.1567
      5 C          63.8394   86.1873   14.0597 C.ar    1  UNL1        0.1655
      6 N          63.6837   85.6169   12.6811 N.ar    1  UNL1       -0.2239
      7 C          63.1065   84.2386   12.8122 C.ar    1  UNL1        0.0893
      8 C          62.7381   83.2035   11.7910 C.ar    1  UNL1        0.0202
      9 C          62.1685   81.8870   12.2295 C.ar    1  UNL1        0.0083
     10 C          61.9675   81.6056   13.6891 C.ar    1  UNL1        0.0352
     11 BR         61.3979   80.2889   14.1275 Br      1  UNL1       -0.0490
     12 C          62.3359   82.6407   14.7102 C.ar    1  UNL1        0.0148
     13 C          62.9055   83.9572   14.2718 C.ar    1  UNL1        0.0502
     14 S          63.3584   85.1616   15.0427 S.2     1  UNL1       -0.0514
     15 C          65.0696   92.4027   17.0909 C.3     1  UNL1        0.0000
     16 C          65.0693   91.9267   15.6685 C.3     1  UNL1        0.0005
     17 C          64.5277   90.5689   15.3320 C.3     1  UNL1        0.0091
     18 C          64.5274   90.0930   13.9095 C.3     1  UNL1        0.0769
     19 C          65.0686   90.9748   12.8235 C.3     1  UNL1        0.0091
     20 C          65.6102   92.3325   13.1599 C.3     1  UNL1        0.0005
     21 C          65.8236   92.3275   11.6752 C.3     1  UNL1        0.0000
     22 C          66.2259   93.6885   12.9807 C.3     1  UNL1        0.0000
     23 C          65.6105   92.8085   14.5823 C.3     1  UNL1        0.0000
@<TRIPOS>BOND
     1    15    16    1
     2    16    17    1
     3    17    18    1
     4    18     1    1
     5     1     2    2
     6     1     3   am
     7     3     5    1
     8     5     6   ar
     9     6     7   ar
    10     7     8   ar
    11     8     9   ar
    12     9    10   ar
    13    10    11    1
    14    10    12   ar
    15    12    13   ar
    16    13    14   ar
    17    18    19    1
    18    19    20    1
    19    20    21    1
    20    20    22    1
    21    20    23    1
    22    23    16    1
    23    14     5   ar
    24    13     7   ar
    25     3     4    1
@<TRIPOS>MOLECULE
*****
 23 25 0 0 0
SMALL
GASTEIGER

@<TRIPOS>ATOM
      1 C          62.8907   88.9684   11.3022 C.2     1  UNL1        0.2270
      2 O          63.3648   88.1024   12.4315 O.2     1  UNL1       -0.2747
      3 N          63.2501   90.4244   11.2716 N.am    1  UNL1       -0.2641
      4 H          62.9390   90.9928   10.5304 H       1  UNL1        0.1567
      5 C          64.0836   91.0144   12.3704 C.ar    1  UNL1        0.1655
      6 N          63.7619   90.9827   13.8351 N.ar    1  UNL1       -0.2239
      7 C          64.8646   91.6884   14.5673 C.ar    1  UNL1        0.0893
      8 C          65.0848   91.9654   16.0249 C.ar    1  UNL1        0.0202
      9 C          66.3082   92.7102   16.4703 C.ar    1  UNL1        0.0083
     10 C          67.3114   93.1781   15.4581 C.ar    1  UNL1        0.0352
     11 BR         68.5349   93.9230   15.9035 Br      1  UNL1       -0.0490
     12 C          67.0913   92.9011   14.0005 C.ar    1  UNL1        0.0148
     13 C          65.8679   92.1562   13.5551 C.ar    1  UNL1        0.0502
     14 S          65.3852   91.7397   12.1973 S.2     1  UNL1       -0.0514
     15 C          61.7319   84.9803    8.1794 C.3     1  UNL1        0.0000
     16 C          61.4778   86.3843    8.6421 C.3     1  UNL1        0.0005
     17 C          62.3113   86.9743    9.7408 C.3     1  UNL1        0.0091
     18 C          62.0573   88.3784   10.2035 C.3     1  UNL1        0.0769
     19 C          60.9698   89.1925    9.5674 C.3     1  UNL1        0.0091
     20 C          60.1363   88.6025    8.4686 C.3     1  UNL1        0.0005
     21 C          59.5183   89.9662    8.5608 C.3     1  UNL1        0.0000
     22 C          59.0882   88.4861    7.4019 C.3     1  UNL1        0.0000
     23 C          60.3903   87.1985    8.0060 C.3     1  UNL1        0.0000
@<TRIPOS>BOND
     1    15    16    1
     2    16    17    1
     3    17    18    1
     4    18     1    1
     5     1     2    2
     6     1     3   am
     7     3     5    1
     8     5     6   ar
     9     6     7   ar
    10     7     8   ar
    11     8     9   ar
    12     9    10   ar
    13    10    11    1
    14    10    12   ar
    15    12    13   ar
    16    13    14   ar
    17    18    19    1
    18    19    20    1
    19    20    21    1
    20    20    22    1
    21    20    23    1
    22    23    16    1
    23    14     5   ar
    24    13     7   ar
    25     3     4    1
@<TRIPOS>MOLECULE
*****
 23 25 0 0 0
SMALL
GASTEIGER

@<TRIPOS>ATOM
      1 C          64.0823   89.5612   14.2392 C.2     1  UNL1        0.2270
      2 O          63.0000   90.0825   13.3408 O.2     1  UNL1       -0.2747
      3 N          65.3703   90.3172   14.3786 N.am    1  UNL1       -0.2641
      4 H          66.0806   89.9750   14.9682 H       1  UNL1        0.1567
      5 C          65.5761   91.5946   13.6197 C.ar    1  UNL1        0.1655
      6 N          66.0406   92.8985   14.1977 N.ar    1  UNL1       -0.2239
      7 C          66.1051   93.9021   13.0848 C.ar    1  UNL1        0.0893
      8 C          66.4956   95.3501   13.0605 C.ar    1  UNL1        0.0202
      9 C          66.4615   96.1146   11.7704 C.ar    1  UNL1        0.0083
     10 C          66.0369   95.4310   10.5046 C.ar    1  UNL1        0.0352
     11 BR         66.0028   96.1955    9.2144 Br      1  UNL1       -0.0490
     12 C          65.6463   93.9829   10.5289 C.ar    1  UNL1        0.0148
     13 C          65.6804   93.2185   11.8190 C.ar    1  UNL1        0.0502
     14 S          65.3535   91.7924   12.1496 S.2     1  UNL1       -0.0514
     15 C          62.6058   87.0821   18.5606 C.3     1  UNL1        0.0000
     16 C          63.1382   87.0443   17.1588 C.3     1  UNL1        0.0005
     17 C          63.3440   88.3217   16.3999 C.3     1  UNL1        0.0091
     18 C          63.8765   88.2838   14.9981 C.3     1  UNL1        0.0769
     19 C          64.2032   86.9685   14.3552 C.3     1  UNL1        0.0091
     20 C          63.9974   85.6911   15.1141 C.3     1  UNL1        0.0005
     21 C          64.5216   85.1436   13.8197 C.3     1  UNL1        0.0000
     22 C          63.9736   84.2236   15.4235 C.3     1  UNL1        0.0000
     23 C          63.4649   85.7290   16.5159 C.3     1  UNL1        0.0000
@<TRIPOS>BOND
     1    15    16    1
     2    16    17    1
     3    17    18    1
     4    18     1    1
     5     1     2    2
     6     1     3   am
     7     3     5    1
     8     5     6   ar
     9     6     7   ar
    10     7     8   ar
    11     8     9   ar
    12     9    10   ar
    13    10    11    1
    14    10    12   ar
    15    12    13   ar
    16    13    14   ar
    17    18    19    1
    18    19    20    1
    19    20    21    1
    20    20    22    1
    21    20    23    1
    22    23    16    1
    23    14     5   ar
    24    13     7   ar
    25     3     4    1
@<TRIPOS>MOLECULE
*****
 23 25 0 0 0
SMALL
GASTEIGER

@<TRIPOS>ATOM
      1 C          63.4416   87.3358   13.1640 C.2     1  UNL1        0.2270
      2 O          62.7157   87.1432   11.8655 O.2     1  UNL1       -0.2747
      3 N          63.8859   86.1438   13.9588 N.am    1  UNL1       -0.2641
      4 H          64.3624   86.2702   14.8110 H       1  UNL1        0.1567
      5 C          63.6043   84.7592   13.4552 C.ar    1  UNL1        0.1655
      6 N          63.0712   83.6168   14.2681 N.ar    1  UNL1       -0.2239
      7 C          62.9438   82.4255   13.3656 C.ar    1  UNL1        0.0893
      8 C          62.4727   81.0234   13.6148 C.ar    1  UNL1        0.0202
      9 C          62.4560   80.0274   12.4934 C.ar    1  UNL1        0.0083
     10 C          62.9104   80.4335   11.1227 C.ar    1  UNL1        0.0352
     11 BR         62.8937   79.4374   10.0013 Br      1  UNL1       -0.0490
     12 C          63.3815   81.8356   10.8735 C.ar    1  UNL1        0.0148
     13 C          63.3982   82.8316   11.9949 C.ar    1  UNL1        0.0502
     14 S          63.8064   84.2739   12.0504 S.2     1  UNL1       -0.0514
     15 C          64.9480   92.2284   12.2734 C.3     1  UNL1        0.0000
     16 C          64.4765   91.1667   13.2223 C.3     1  UNL1        0.0005
     17 C          64.1948   89.7821   12.7187 C.3     1  UNL1        0.0091
     18 C          63.7232   88.7204   13.6676 C.3     1  UNL1        0.0769
     19 C          63.5333   89.0433   15.1200 C.3     1  UNL1        0.0091
     20 C          63.8149   90.4279   15.6236 C.3     1  UNL1        0.0005
     21 C          63.3898   89.7673   16.9015 C.3     1  UNL1        0.0000
     22 C          63.9489   91.5830   16.5710 C.3     1  UNL1        0.0000
     23 C          64.2865   91.4896   14.6748 C.3     1  UNL1        0.0000
@<TRIPOS>BOND
     1    15    16    1
     2    16    17    1
     3    17    18    1
     4    18     1    1
     5     1     2    2
     6     1     3   am
     7     3     5    1
     8     5     6   ar
     9     6     7   ar
    10     7     8   ar
    11     8     9   ar
    12     9    10   ar
    13    10    11    1
    14    10    12   ar
    15    12    13   ar
    16    13    14   ar
    17    18    19    1
    18    19    20    1
    19    20    21    1
    20    20    22    1
    21    20    23    1
    22    23    16    1
    23    14     5   ar
    24    13     7   ar
    25     3     4    1
@<TRIPOS>MOLECULE
*****
 23 25 0 0 0
SMALL
GASTEIGER

@<TRIPOS>ATOM
      1 C          64.4772   90.8605   12.8353 C.2     1  UNL1        0.2270
      2 O          64.4881   91.4820   11.4701 O.2     1  UNL1       -0.2747
      3 N          63.6296   89.6522   13.1025 N.am    1  UNL1       -0.2641
      4 H          63.6225   89.2443   13.9985 H       1  UNL1        0.1567
      5 C          62.7928   89.0653   12.0046 C.ar    1  UNL1        0.1655
      6 N          62.6480   87.6057   11.6905 N.ar    1  UNL1       -0.2239
      7 C          61.7196   87.4733   10.5198 C.ar    1  UNL1        0.0893
      8 C          61.2094   86.2762    9.7738 C.ar    1  UNL1        0.0202
      9 C          60.2702   86.4569    8.6183 C.ar    1  UNL1        0.0083
     10 C          59.8410   87.8347    8.2090 C.ar    1  UNL1        0.0352
     11 BR         58.9017   88.0153    7.0534 Br      1  UNL1       -0.0490
     12 C          60.3512   89.0318    8.9550 C.ar    1  UNL1        0.0148
     13 C          61.2904   88.8511   10.1105 C.ar    1  UNL1        0.0502
     14 S          61.9537   89.8350   11.0281 S.2     1  UNL1       -0.0514
     15 C          64.8979   92.7191   17.6694 C.3     1  UNL1        0.0000
     16 C          65.5243   92.3766   16.3502 C.3     1  UNL1        0.0005
     17 C          64.6875   91.7898   15.2523 C.3     1  UNL1        0.0091
     18 C          65.3140   91.4473   13.9331 C.3     1  UNL1        0.0769
     19 C          66.7773   91.6917   13.7119 C.3     1  UNL1        0.0091
     20 C          67.6142   92.2785   14.8097 C.3     1  UNL1        0.0005
     21 C          68.6571   92.1209   13.7432 C.3     1  UNL1        0.0000
     22 C          68.8131   92.8106   15.5372 C.3     1  UNL1        0.0000
     23 C          66.9877   92.6210   16.1289 C.3     1  UNL1        0.0000
@<TRIPOS>BOND
     1    15    16    1
     2    16    17    1
     3    17    18    1
     4    18     1    1
     5     1     2    2
     6     1     3   am
     7     3     5    1
     8     5     6   ar
     9     6     7   ar
    10     7     8   ar
    11     8     9   ar
    12     9    10   ar
    13    10    11    1
    14    10    12   ar
    15    12    13   ar
    16    13    14   ar
    17    18    19    1
    18    19    20    1
    19    20    21    1
    20    20    22    1
    21    20    23    1
    22    23    16    1
    23    14     5   ar
    24    13     7   ar
    25     3     4    1
@<TRIPOS>MOLECULE
*****
 23 25 0 0 0
SMALL
GASTEIGER

@<TRIPOS>ATOM
      1 C          63.2223   87.5561   12.6219 C.2     1  UNL1        0.2270
      2 O          62.1667   87.1258   11.6469 O.2     1  UNL1       -0.2747
      3 N          63.8500   86.5499   13.5403 N.am    1  UNL1       -0.2641
      4 H          64.5428   86.8323   14.1802 H       1  UNL1        0.1567
      5 C          63.4221   85.1133   13.4837 C.ar    1  UNL1        0.1655
      6 N          62.4713   84.4387   14.4275 N.ar    1  UNL1       -0.2239
      7 C          62.3315   83.0076   14.0005 C.ar    1  UNL1        0.0893
      8 C          61.5287   81.8684   14.5553 C.ar    1  UNL1        0.0202
      9 C          61.5905   80.5194   13.9025 C.ar    1  UNL1        0.0083
     10 C          62.4550   80.3095   12.6948 C.ar    1  UNL1        0.0352
     11 BR         62.5167   78.9604   12.0419 Br      1  UNL1       -0.0490
     12 C          63.2578   81.4486   12.1399 C.ar    1  UNL1        0.0148
     13 C          63.1960   82.7977   12.7928 C.ar    1  UNL1        0.0502
     14 S          63.8700   84.0991   12.4734 S.2     1  UNL1       -0.0514
     15 C          65.2673   91.5420   15.2545 C.3     1  UNL1        0.0000
     16 C          64.6727   90.9856   13.9948 C.3     1  UNL1        0.0005
     17 C          64.2448   89.5491   13.9382 C.3     1  UNL1        0.0091
     18 C          63.6501   88.9927   12.6785 C.3     1  UNL1        0.0769
     19 C          63.4833   89.8729   11.4754 C.3     1  UNL1        0.0091
     20 C          63.9112   91.3094   11.5320 C.3     1  UNL1        0.0005
     21 C          63.4039   91.2441   10.1219 C.3     1  UNL1        0.0000
     22 C          64.1628   92.7233   11.0989 C.3     1  UNL1        0.0000
     23 C          64.5058   91.8658   12.7917 C.3     1  UNL1        0.0000
@<TRIPOS>BOND
     1    15    16    1
     2    16    17    1
     3    17    18    1
     4    18     1    1
     5     1     2    2
     6     1     3   am
     7     3     5    1
     8     5     6   ar
     9     6     7   ar
    10     7     8   ar
    11     8     9   ar
    12     9    10   ar
    13    10    11    1
    14    10    12   ar
    15    12    13   ar
    16    13    14   ar
    17    18    19    1
    18    19    20    1
    19    20    21    1
    20    20    22    1
    21    20    23    1
    22    23    16    1
    23    14     5   ar
    24    13     7   ar
    25     3     4    1
@<TRIPOS>MOLECULE
*****
 23 25 0 0 0
SMALL
GASTEIGER

@<TRIPOS>ATOM
      1 C          63.7508   85.0123   13.2630 C.2     1  UNL1        0.2270
      2 O          64.9369   85.1650   14.1686 O.2     1  UNL1       -0.2747
      3 N          63.0554   86.2283   12.7265 N.am    1  UNL1       -0.2641
      4 H          62.2770   86.1281   12.1321 H       1  UNL1        0.1567
      5 C          63.5461   87.5969   13.0955 C.ar    1  UNL1        0.1655
      6 N          63.4243   88.8334   12.2552 N.ar    1  UNL1       -0.2239
      7 C          64.0476   89.9700   13.0099 C.ar    1  UNL1        0.0893
      8 C          64.2190   91.4223   12.6761 C.ar    1  UNL1        0.0202
      9 C          64.8975   92.3405   13.6490 C.ar    1  UNL1        0.0083
     10 C          65.4045   91.8064   14.9557 C.ar    1  UNL1        0.0352
     11 BR         66.0830   92.7246   15.9287 Br      1  UNL1       -0.0490
     12 C          65.2331   90.3541   15.2896 C.ar    1  UNL1        0.0148
     13 C          64.5547   89.4359   14.3167 C.ar    1  UNL1        0.0502
     14 S          64.2447   87.9693   14.3695 S.2     1  UNL1       -0.0514
     15 C          60.9263   80.7941   14.3715 C.3     1  UNL1        0.0000
     16 C          61.8478   81.5346   13.4483 C.3     1  UNL1        0.0005
     17 C          62.3385   82.9032   13.8173 C.3     1  UNL1        0.0091
     18 C          63.2601   83.6437   12.8940 C.3     1  UNL1        0.0769
     19 C          63.6910   83.0156   11.6018 C.3     1  UNL1        0.0091
     20 C          63.2003   81.6470   11.2329 C.3     1  UNL1        0.0005
     21 C          64.0545   81.9486   10.0373 C.3     1  UNL1        0.0000
     22 C          63.0063   80.3832   10.4487 C.3     1  UNL1        0.0000
     23 C          62.2788   80.9065   12.1561 C.3     1  UNL1        0.0000
@<TRIPOS>BOND
     1    15    16    1
     2    16    17    1
     3    17    18    1
     4    18     1    1
     5     1     2    2
     6     1     3   am
     7     3     5    1
     8     5     6   ar
     9     6     7   ar
    10     7     8   ar
    11     8     9   ar
    12     9    10   ar
    13    10    11    1
    14    10    12   ar
    15    12    13   ar
    16    13    14   ar
    17    18    19    1
    18    19    20    1
    19    20    21    1
    20    20    22    1
    21    20    23    1
    22    23    16    1
    23    14     5   ar
    24    13     7   ar
    25     3     4    1
