@<TRIPOS>MOLECULE
*****
 28 30 0 0 0
SMALL
GASTEIGER

@<TRIPOS>ATOM
      1 C          64.2562   91.4098   11.8763 C.ar    1  UNL1        0.0274
      2 C          63.4609   91.1709   10.6271 C.ar    1  UNL1        0.0013
      3 C          62.6309   89.9287   10.4924 C.ar    1  UNL1        0.0145
      4 C          62.5962   88.9254   11.6069 C.ar    1  UNL1        0.0513
      5 C          63.3915   89.1643   12.8562 C.ar    1  UNL1        0.0509
      6 C          64.2215   90.4064   12.9909 C.ar    1  UNL1        0.1322
      7 O          65.0168   90.6453   14.2400 O.3     1  UNL1       -0.5057
      8 H          64.9951   90.0186   14.9362 H       1  UNL1        0.2922
      9 N          61.7662   87.6833   11.4723 N.pl3   1  UNL1       -0.3124
     10 H          60.8903   87.6258   11.9179 H       1  UNL1        0.1522
     11 C          62.2709   86.5286   10.6585 C.ar    1  UNL1        0.0513
     12 C          62.3494   86.6412    9.1648 C.ar    1  UNL1        0.0353
     13 C          62.8541   85.4866    8.3512 C.ar    1  UNL1        0.1001
     14 N          63.2802   84.2193    9.0312 N.ar    1  UNL1       -0.2437
     15 C          63.2017   84.1067   10.5248 C.ar    1  UNL1        0.0833
     16 C          63.6278   82.8394   11.2048 C.ar    1  UNL1        0.0305
     17 C          63.5493   82.7268   12.6985 C.ar    1  UNL1        0.0592
     18 CL         63.9755   81.4595   13.3785 Cl      1  UNL1       -0.0822
     19 C          63.0447   83.8814   13.5123 C.ar    1  UNL1        0.0115
     20 C          62.6185   85.1487   12.8323 C.ar    1  UNL1        0.0036
     21 C          62.6970   85.2613   11.3385 C.ar    1  UNL1        0.0312
     22 C          65.0862   92.6519   12.0110 C.3     1  UNL1        0.0986
     23 N          66.5288   92.6382   11.6003 N.3     1  UNL1       -0.2958
     24 H          67.0623   93.0087   12.3868 H       1  UNL1        0.1235
     25 C          66.0841   94.5414   10.7756 C.3     1  UNL1        0.0158
     26 C          66.9693   93.3958   10.3830 C.3     1  UNL1        0.0423
     27 C          67.8545   92.2503    9.9903 C.3     1  UNL1        0.0158
     28 C          67.4098   94.1534    9.1656 C.3     1  UNL1        0.0158
@<TRIPOS>BOND
     1    25    26    1
     2    26    27    1
     3    26    28    1
     4    26    23    1
     5    23    22    1
     6    22     1    1
     7     1     2   ar
     8     2     3   ar
     9     3     4   ar
    10     4     9    1
    11     9    11    1
    12    11    12   ar
    13    12    13   ar
    14    13    14   ar
    15    14    15   ar
    16    15    16   ar
    17    16    17   ar
    18    17    18    1
    19    17    19   ar
    20    19    20   ar
    21    20    21   ar
    22     4     5   ar
    23     5     6   ar
    24     6     7    1
    25     6     1   ar
    26    21    11   ar
    27    21    15   ar
    28    23    24    1
    29     9    10    1
    30     7     8    1
@<TRIPOS>MOLECULE
*****
 28 30 0 0 0
SMALL
GASTEIGER

@<TRIPOS>ATOM
      1 C          64.4006   91.1801   12.3789 C.ar    1  UNL1        0.0274
      2 C          64.2872   90.0772   13.3892 C.ar    1  UNL1        0.0013
      3 C          63.4085   88.8936   13.1119 C.ar    1  UNL1        0.0145
      4 C          62.6433   88.8128   11.8243 C.ar    1  UNL1        0.0513
      5 C          62.7567   89.9157   10.8139 C.ar    1  UNL1        0.0509
      6 C          63.6354   91.0994   11.0912 C.ar    1  UNL1        0.1322
      7 O          63.7489   92.2023   10.0809 O.3     1  UNL1       -0.5057
      8 H          63.2709   92.1518    9.2766 H       1  UNL1        0.2922
      9 N          61.7646   87.6292   11.5470 N.pl3   1  UNL1       -0.3124
     10 H          60.8511   87.5978   11.9128 H       1  UNL1        0.1522
     11 C          62.2777   86.4933   10.7124 C.ar    1  UNL1        0.0513
     12 C          62.3697   86.6392    9.2224 C.ar    1  UNL1        0.0353
     13 C          62.8828   85.5033    8.3879 C.ar    1  UNL1        0.1001
     14 N          63.3040   84.2216    9.0434 N.ar    1  UNL1       -0.2437
     15 C          63.2121   84.0757   10.5334 C.ar    1  UNL1        0.0833
     16 C          63.6333   82.7939   11.1889 C.ar    1  UNL1        0.0305
     17 C          63.5414   82.6481   12.6790 C.ar    1  UNL1        0.0592
     18 CL         63.9627   81.3663   13.3345 Cl      1  UNL1       -0.0822
     19 C          63.0283   83.7839   13.5136 C.ar    1  UNL1        0.0115
     20 C          62.6070   85.0657   12.8580 C.ar    1  UNL1        0.0036
     21 C          62.6990   85.2115   11.3679 C.ar    1  UNL1        0.0312
     22 C          65.2793   92.3638   12.6562 C.3     1  UNL1        0.0986
     23 N          65.4989   92.8205   14.0679 N.3     1  UNL1       -0.2958
     24 H          65.5149   93.8402   14.0484 H       1  UNL1        0.1235
     25 C          67.4604   92.2277   13.5191 C.3     1  UNL1        0.0158
     26 C          66.7230   92.3825   14.8161 C.3     1  UNL1        0.0423
     27 C          65.9856   92.5373   16.1132 C.3     1  UNL1        0.0158
     28 C          67.9471   91.9445   15.5643 C.3     1  UNL1        0.0158
@<TRIPOS>BOND
     1    25    26    1
     2    26    27    1
     3    26    28    1
     4    26    23    1
     5    23    22    1
     6    22     1    1
     7     1     2   ar
     8     2     3   ar
     9     3     4   ar
    10     4     9    1
    11     9    11    1
    12    11    12   ar
    13    12    13   ar
    14    13    14   ar
    15    14    15   ar
    16    15    16   ar
    17    16    17   ar
    18    17    18    1
    19    17    19   ar
    20    19    20   ar
    21    20    21   ar
    22     4     5   ar
    23     5     6   ar
    24     6     7    1
    25     6     1   ar
    26    21    11   ar
    27    21    15   ar
    28    23    24    1
    29     9    10    1
    30     7     8    1
@<TRIPOS>MOLECULE
*****
 28 30 0 0 0
SMALL
GASTEIGER

@<TRIPOS>ATOM
      1 C          63.7565   86.5111   15.8725 C.ar    1  UNL1        0.0274
      2 C          64.3886   87.1465   14.6697 C.ar    1  UNL1        0.0013
      3 C          64.3472   88.6362   14.4996 C.ar    1  UNL1        0.0145
      4 C          63.6737   89.4906   15.5323 C.ar    1  UNL1        0.0513
      5 C          63.0415   88.8552   16.7351 C.ar    1  UNL1        0.0509
      6 C          63.0829   87.3654   16.9052 C.ar    1  UNL1        0.1322
      7 O          62.4509   86.7300   18.1080 O.3     1  UNL1       -0.5057
      8 H          62.0301   87.2637   18.7530 H       1  UNL1        0.2922
      9 N          63.6322   90.9803   15.3622 N.pl3   1  UNL1       -0.3124
     10 H          62.7699   91.4547   15.3859 H       1  UNL1        0.1522
     11 C          64.9048   91.7473   15.1559 C.ar    1  UNL1        0.0513
     12 C          65.7458   92.1360   16.3355 C.ar    1  UNL1        0.0353
     13 C          67.0183   92.9029   16.1292 C.ar    1  UNL1        0.1001
     14 N          67.4497   93.2812   14.7432 N.ar    1  UNL1       -0.2437
     15 C          66.6086   92.8925   13.5636 C.ar    1  UNL1        0.0833
     16 C          67.0400   93.2708   12.1777 C.ar    1  UNL1        0.0305
     17 C          66.1990   92.8821   10.9981 C.ar    1  UNL1        0.0592
     18 CL         66.6304   93.2604    9.6122 Cl      1  UNL1       -0.0822
     19 C          64.9264   92.1151   11.2044 C.ar    1  UNL1        0.0115
     20 C          64.4950   91.7369   12.5903 C.ar    1  UNL1        0.0036
     21 C          65.3362   92.1256   13.7700 C.ar    1  UNL1        0.0312
     22 C          63.7979   85.0213   16.0426 C.3     1  UNL1        0.0986
     23 N          64.4309   84.1633   14.9875 N.3     1  UNL1       -0.2958
     24 H          65.0470   84.7693   14.4457 H       1  UNL1        0.1235
     25 C          64.5556   83.7349   12.9136 C.3     1  UNL1        0.0158
     26 C          63.5705   83.4286   14.0026 C.3     1  UNL1        0.0423
     27 C          62.5855   83.1222   15.0916 C.3     1  UNL1        0.0158
     28 C          62.7102   82.6938   13.0177 C.3     1  UNL1        0.0158
@<TRIPOS>BOND
     1    25    26    1
     2    26    27    1
     3    26    28    1
     4    26    23    1
     5    23    22    1
     6    22     1    1
     7     1     2   ar
     8     2     3   ar
     9     3     4   ar
    10     4     9    1
    11     9    11    1
    12    11    12   ar
    13    12    13   ar
    14    13    14   ar
    15    14    15   ar
    16    15    16   ar
    17    16    17   ar
    18    17    18    1
    19    17    19   ar
    20    19    20   ar
    21    20    21   ar
    22     4     5   ar
    23     5     6   ar
    24     6     7    1
    25     6     1   ar
    26    21    11   ar
    27    21    15   ar
    28    23    24    1
    29     9    10    1
    30     7     8    1
@<TRIPOS>MOLECULE
*****
 28 30 0 0 0
SMALL
GASTEIGER

@<TRIPOS>ATOM
      1 C          62.3213   87.0235   10.8896 C.ar    1  UNL1        0.0274
      2 C          61.9278   88.1324    9.9593 C.ar    1  UNL1        0.0013
      3 C          62.1987   89.5589   10.3357 C.ar    1  UNL1        0.0145
      4 C          62.8631   89.8766   11.6425 C.ar    1  UNL1        0.0513
      5 C          63.2566   88.7677   12.5729 C.ar    1  UNL1        0.0509
      6 C          62.9857   87.3412   12.1965 C.ar    1  UNL1        0.1322
      7 O          63.3791   86.2323   13.1268 O.3     1  UNL1       -0.5057
      8 H          63.7942   86.4307   13.9431 H       1  UNL1        0.2922
      9 N          63.1340   91.3031   12.0189 N.pl3   1  UNL1       -0.3124
     10 H          62.4122   91.8596   12.3910 H       1  UNL1        0.1522
     11 C          64.5048   91.8816   11.8284 C.ar    1  UNL1        0.0513
     12 C          64.9322   92.3681   10.4754 C.ar    1  UNL1        0.0353
     13 C          66.3029   92.9466   10.2849 C.ar    1  UNL1        0.1001
     14 N          67.2463   93.0387   11.4475 N.ar    1  UNL1       -0.2437
     15 C          66.8190   92.5522   12.8005 C.ar    1  UNL1        0.0833
     16 C          67.7624   92.6442   13.9630 C.ar    1  UNL1        0.0305
     17 C          67.3350   92.1577   15.3160 C.ar    1  UNL1        0.0592
     18 CL         68.2784   92.2498   16.4786 Cl      1  UNL1       -0.0822
     19 C          65.9642   91.5792   15.5065 C.ar    1  UNL1        0.0115
     20 C          65.0208   91.4871   14.3440 C.ar    1  UNL1        0.0036
     21 C          65.4482   91.9737   12.9909 C.ar    1  UNL1        0.0312
     22 C          62.0503   85.5970   10.5132 C.3     1  UNL1        0.0986
     23 N          62.3748   84.4929   11.4753 N.3     1  UNL1       -0.2958
     24 H          62.8948   84.9157   12.2442 H       1  UNL1        0.1235
     25 C          62.7583   82.5541   12.2459 C.3     1  UNL1        0.0158
     26 C          63.1697   83.3069   11.0154 C.3     1  UNL1        0.0423
     27 C          63.5810   84.0597    9.7849 C.3     1  UNL1        0.0158
     28 C          63.9646   82.1209   10.5555 C.3     1  UNL1        0.0158
@<TRIPOS>BOND
     1    25    26    1
     2    26    27    1
     3    26    28    1
     4    26    23    1
     5    23    22    1
     6    22     1    1
     7     1     2   ar
     8     2     3   ar
     9     3     4   ar
    10     4     9    1
    11     9    11    1
    12    11    12   ar
    13    12    13   ar
    14    13    14   ar
    15    14    15   ar
    16    15    16   ar
    17    16    17   ar
    18    17    18    1
    19    17    19   ar
    20    19    20   ar
    21    20    21   ar
    22     4     5   ar
    23     5     6   ar
    24     6     7    1
    25     6     1   ar
    26    21    11   ar
    27    21    15   ar
    28    23    24    1
    29     9    10    1
    30     7     8    1
@<TRIPOS>MOLECULE
*****
 28 30 0 0 0
SMALL
GASTEIGER

@<TRIPOS>ATOM
      1 C          61.4004   88.1990   10.1833 C.ar    1  UNL1        0.0274
      2 C          61.1940   89.6226    9.7583 C.ar    1  UNL1        0.0013
      3 C          61.8509   90.7354   10.5199 C.ar    1  UNL1        0.0145
      4 C          62.7142   90.4247   11.7065 C.ar    1  UNL1        0.0513
      5 C          62.9207   89.0010   12.1316 C.ar    1  UNL1        0.0509
      6 C          62.2638   87.8881   11.3699 C.ar    1  UNL1        0.1322
      7 O          62.4702   86.4645   11.7949 O.3     1  UNL1       -0.5057
      8 H          63.0095   86.2704   12.5362 H       1  UNL1        0.2922
      9 N          63.3711   91.5375   12.4681 N.pl3   1  UNL1       -0.3124
     10 H          62.8811   91.9983   13.1870 H       1  UNL1        0.1522
     11 C          64.7747   91.9482   12.1345 C.ar    1  UNL1        0.0513
     12 C          65.1435   92.2766   10.7181 C.ar    1  UNL1        0.0353
     13 C          66.5470   92.6873   10.3845 C.ar    1  UNL1        0.1001
     14 N          67.5818   92.7697   11.4673 N.ar    1  UNL1       -0.2437
     15 C          67.2131   92.4413   12.8837 C.ar    1  UNL1        0.0833
     16 C          68.2479   92.5236   13.9665 C.ar    1  UNL1        0.0305
     17 C          67.8791   92.1952   15.3828 C.ar    1  UNL1        0.0592
     18 CL         68.9139   92.2776   16.4656 Cl      1  UNL1       -0.0822
     19 C          66.4755   91.7845   15.7165 C.ar    1  UNL1        0.0115
     20 C          65.4407   91.7022   14.6337 C.ar    1  UNL1        0.0036
     21 C          65.8095   92.0306   13.2173 C.ar    1  UNL1        0.0312
     22 C          60.7435   87.0861    9.4217 C.3     1  UNL1        0.0986
     23 N          61.4787   85.7992    9.1909 N.3     1  UNL1       -0.2958
     24 H          62.3924   85.8987    9.6332 H       1  UNL1        0.1235
     25 C          63.1379   84.9723    8.1597 C.3     1  UNL1        0.0158
     26 C          61.7249   85.3164    7.7922 C.3     1  UNL1        0.0423
     27 C          60.3119   85.6605    7.4247 C.3     1  UNL1        0.0158
     28 C          61.9711   84.8337    6.3935 C.3     1  UNL1        0.0158
@<TRIPOS>BOND
     1    25    26    1
     2    26    27    1
     3    26    28    1
     4    26    23    1
     5    23    22    1
     6    22     1    1
     7     1     2   ar
     8     2     3   ar
     9     3     4   ar
    10     4     9    1
    11     9    11    1
    12    11    12   ar
    13    12    13   ar
    14    13    14   ar
    15    14    15   ar
    16    15    16   ar
    17    16    17   ar
    18    17    18    1
    19    17    19   ar
    20    19    20   ar
    21    20    21   ar
    22     4     5   ar
    23     5     6   ar
    24     6     7    1
    25     6     1   ar
    26    21    11   ar
    27    21    15   ar
    28    23    24    1
    29     9    10    1
    30     7     8    1
@<TRIPOS>MOLECULE
*****
 28 30 0 0 0
SMALL
GASTEIGER

@<TRIPOS>ATOM
      1 C          63.0086   86.4767   12.1898 C.ar    1  UNL1        0.0274
      2 C          62.3812   87.3467   11.1414 C.ar    1  UNL1        0.0013
      3 C          62.4490   88.8399   11.2669 C.ar    1  UNL1        0.0145
      4 C          63.1442   89.4631   12.4410 C.ar    1  UNL1        0.0513
      5 C          63.7716   88.5930   13.4895 C.ar    1  UNL1        0.0509
      6 C          63.7039   87.0998   13.3639 C.ar    1  UNL1        0.1322
      7 O          64.3313   86.2297   14.4124 O.3     1  UNL1       -0.5057
      8 H          64.7656   86.6190   15.1458 H       1  UNL1        0.2922
      9 N          63.2119   90.9562   12.5665 N.pl3   1  UNL1       -0.3124
     10 H          62.4326   91.4582   12.8981 H       1  UNL1        0.1522
     11 C          64.4671   91.6846   12.1869 C.ar    1  UNL1        0.0513
     12 C          64.6579   92.1669   10.7794 C.ar    1  UNL1        0.0353
     13 C          65.9130   92.8952   10.3998 C.ar    1  UNL1        0.1001
     14 N          66.9773   93.1413   11.4277 N.ar    1  UNL1       -0.2437
     15 C          66.7866   92.6591   12.8352 C.ar    1  UNL1        0.0833
     16 C          67.8509   92.9052   13.8631 C.ar    1  UNL1        0.0305
     17 C          67.6602   92.4230   15.2706 C.ar    1  UNL1        0.0592
     18 CL         68.7245   92.6691   16.2985 Cl      1  UNL1       -0.0822
     19 C          66.4050   91.6946   15.6502 C.ar    1  UNL1        0.0115
     20 C          65.3406   91.4485   14.6223 C.ar    1  UNL1        0.0036
     21 C          65.5315   91.9308   13.2148 C.ar    1  UNL1        0.0312
     22 C          62.9409   84.9835   12.0642 C.3     1  UNL1        0.0986
     23 N          62.4078   84.1589   13.1981 N.3     1  UNL1       -0.2958
     24 H          62.7178   84.6079   14.0599 H       1  UNL1        0.1235
     25 C          62.8252   82.8355   14.8026 C.3     1  UNL1        0.0158
     26 C          62.7756   82.7089   13.3088 C.3     1  UNL1        0.0423
     27 C          62.7260   82.5823   11.8149 C.3     1  UNL1        0.0158
     28 C          63.1435   81.2589   13.4194 C.3     1  UNL1        0.0158
@<TRIPOS>BOND
     1    25    26    1
     2    26    27    1
     3    26    28    1
     4    26    23    1
     5    23    22    1
     6    22     1    1
     7     1     2   ar
     8     2     3   ar
     9     3     4   ar
    10     4     9    1
    11     9    11    1
    12    11    12   ar
    13    12    13   ar
    14    13    14   ar
    15    14    15   ar
    16    15    16   ar
    17    16    17   ar
    18    17    18    1
    19    17    19   ar
    20    19    20   ar
    21    20    21   ar
    22     4     5   ar
    23     5     6   ar
    24     6     7    1
    25     6     1   ar
    26    21    11   ar
    27    21    15   ar
    28    23    24    1
    29     9    10    1
    30     7     8    1
@<TRIPOS>MOLECULE
*****
 28 30 0 0 0
SMALL
GASTEIGER

@<TRIPOS>ATOM
      1 C          63.1833   84.9499   12.0047 C.ar    1  UNL1        0.0274
      2 C          62.3691   85.6447   10.9538 C.ar    1  UNL1        0.0013
      3 C          62.1350   87.1236   11.0425 C.ar    1  UNL1        0.0145
      4 C          62.7150   87.9078   12.1820 C.ar    1  UNL1        0.0513
      5 C          63.5293   87.2131   13.2329 C.ar    1  UNL1        0.0509
      6 C          63.7635   85.7341   13.1443 C.ar    1  UNL1        0.1322
      7 O          64.5777   85.0394   14.1951 O.3     1  UNL1       -0.5057
      8 H          64.9401   85.5292   14.9069 H       1  UNL1        0.2922
      9 N          62.4809   89.3868   12.2707 N.pl3   1  UNL1       -0.3124
     10 H          61.7501   89.8011   11.7573 H       1  UNL1        0.1522
     11 C          63.3601   90.2344   13.1416 C.ar    1  UNL1        0.0513
     12 C          63.3767   90.0195   14.6260 C.ar    1  UNL1        0.0353
     13 C          64.2559   90.8671   15.4968 C.ar    1  UNL1        0.1001
     14 N          65.1186   91.9298   14.8832 N.ar    1  UNL1       -0.2437
     15 C          65.1021   92.1447   13.3988 C.ar    1  UNL1        0.0833
     16 C          65.9649   93.2074   12.7852 C.ar    1  UNL1        0.0305
     17 C          65.9484   93.4224   11.3008 C.ar    1  UNL1        0.0592
     18 CL         66.8111   94.4850   10.6873 Cl      1  UNL1       -0.0822
     19 C          65.0691   92.5747   10.4299 C.ar    1  UNL1        0.0115
     20 C          64.2063   91.5121   11.0435 C.ar    1  UNL1        0.0036
     21 C          64.2229   91.2971   12.5280 C.ar    1  UNL1        0.0312
     22 C          63.4175   83.4710   11.9160 C.3     1  UNL1        0.0986
     23 N          63.5266   82.6525   13.1683 N.3     1  UNL1       -0.2958
     24 H          64.3325   82.0386   13.0495 H       1  UNL1        0.1235
     25 C          62.6463   80.8623   12.4469 C.3     1  UNL1        0.0158
     26 C          62.3814   81.7850   13.5995 C.3     1  UNL1        0.0423
     27 C          62.1165   82.7077   14.7521 C.3     1  UNL1        0.0158
     28 C          61.2362   80.9176   14.0307 C.3     1  UNL1        0.0158
@<TRIPOS>BOND
     1    25    26    1
     2    26    27    1
     3    26    28    1
     4    26    23    1
     5    23    22    1
     6    22     1    1
     7     1     2   ar
     8     2     3   ar
     9     3     4   ar
    10     4     9    1
    11     9    11    1
    12    11    12   ar
    13    12    13   ar
    14    13    14   ar
    15    14    15   ar
    16    15    16   ar
    17    16    17   ar
    18    17    18    1
    19    17    19   ar
    20    19    20   ar
    21    20    21   ar
    22     4     5   ar
    23     5     6   ar
    24     6     7    1
    25     6     1   ar
    26    21    11   ar
    27    21    15   ar
    28    23    24    1
    29     9    10    1
    30     7     8    1
@<TRIPOS>MOLECULE
*****
 28 30 0 0 0
SMALL
GASTEIGER

@<TRIPOS>ATOM
      1 C          61.7126   88.3069   10.4279 C.ar    1  UNL1        0.0274
      2 C          61.5017   89.7668   10.1558 C.ar    1  UNL1        0.0013
      3 C          62.0837   90.7939   11.0811 C.ar    1  UNL1        0.0145
      4 C          62.8766   90.3611   12.2786 C.ar    1  UNL1        0.0513
      5 C          63.0875   88.9011   12.5508 C.ar    1  UNL1        0.0509
      6 C          62.5054   87.8740   11.6255 C.ar    1  UNL1        0.1322
      7 O          62.7163   86.4141   11.8976 O.3     1  UNL1       -0.5057
      8 H          63.2116   86.1437   12.6457 H       1  UNL1        0.2922
      9 N          63.4586   91.3882   13.2040 N.pl3   1  UNL1       -0.3124
     10 H          62.8646   91.9457   13.7568 H       1  UNL1        0.1522
     11 C          64.9458   91.5661   13.2870 C.ar    1  UNL1        0.0513
     12 C          65.6968   91.0548   14.4805 C.ar    1  UNL1        0.0353
     13 C          67.1839   91.2326   14.5635 C.ar    1  UNL1        0.1001
     14 N          67.9199   91.9217   13.4529 N.ar    1  UNL1       -0.2437
     15 C          67.1689   92.4329   12.2593 C.ar    1  UNL1        0.0833
     16 C          67.9050   93.1220   11.1488 C.ar    1  UNL1        0.0305
     17 C          67.1540   93.6332    9.9552 C.ar    1  UNL1        0.0592
     18 CL         67.8901   94.3223    8.8447 Cl      1  UNL1       -0.0822
     19 C          65.6668   93.4554    9.8722 C.ar    1  UNL1        0.0115
     20 C          64.9308   92.7664   10.9828 C.ar    1  UNL1        0.0036
     21 C          65.6819   92.2551   12.1764 C.ar    1  UNL1        0.0312
     22 C          61.1305   87.2797    9.5026 C.3     1  UNL1        0.0986
     23 N          61.9224   86.0566    9.1464 N.3     1  UNL1       -0.2958
     24 H          62.9072   86.3095    9.2275 H       1  UNL1        0.1235
     25 C          60.3678   85.9933    7.7045 C.3     1  UNL1        0.0158
     26 C          61.7490   85.4164    7.8011 C.3     1  UNL1        0.0423
     27 C          63.1302   84.8394    7.8977 C.3     1  UNL1        0.0158
     28 C          61.5757   84.7761    6.4557 C.3     1  UNL1        0.0158
@<TRIPOS>BOND
     1    25    26    1
     2    26    27    1
     3    26    28    1
     4    26    23    1
     5    23    22    1
     6    22     1    1
     7     1     2   ar
     8     2     3   ar
     9     3     4   ar
    10     4     9    1
    11     9    11    1
    12    11    12   ar
    13    12    13   ar
    14    13    14   ar
    15    14    15   ar
    16    15    16   ar
    17    16    17   ar
    18    17    18    1
    19    17    19   ar
    20    19    20   ar
    21    20    21   ar
    22     4     5   ar
    23     5     6   ar
    24     6     7    1
    25     6     1   ar
    26    21    11   ar
    27    21    15   ar
    28    23    24    1
    29     9    10    1
    30     7     8    1
@<TRIPOS>MOLECULE
*****
 28 30 0 0 0
SMALL
GASTEIGER

@<TRIPOS>ATOM
      1 C          63.8697   83.2804   12.3923 C.ar    1  UNL1        0.0274
      2 C          64.3143   82.6751   11.0939 C.ar    1  UNL1        0.0013
      3 C          63.9826   83.3532    9.7977 C.ar    1  UNL1        0.0145
      4 C          63.2062   84.6366    9.7999 C.ar    1  UNL1        0.0513
      5 C          62.7616   85.2420   11.0984 C.ar    1  UNL1        0.0509
      6 C          63.0933   84.5639   12.3946 C.ar    1  UNL1        0.1322
      7 O          62.6488   85.1691   13.6930 O.3     1  UNL1       -0.5057
      8 H          62.1638   85.9709   13.6944 H       1  UNL1        0.2922
      9 N          62.8744   85.3148    8.5038 N.pl3   1  UNL1       -0.3124
     10 H          63.4901   85.2429    7.7389 H       1  UNL1        0.1522
     11 C          61.6046   86.1025    8.3730 C.ar    1  UNL1        0.0513
     12 C          60.4852   85.5845    7.5194 C.ar    1  UNL1        0.0353
     13 C          59.2154   86.3722    7.3887 C.ar    1  UNL1        0.1001
     14 N          59.0650   87.6779    8.1115 N.ar    1  UNL1       -0.2437
     15 C          60.1844   88.1960    8.9650 C.ar    1  UNL1        0.0833
     16 C          60.0340   89.5017    9.6878 C.ar    1  UNL1        0.0305
     17 C          61.1534   90.0197   10.5413 C.ar    1  UNL1        0.0592
     18 CL         61.0031   91.3255   11.2641 Cl      1  UNL1       -0.0822
     19 C          62.4233   89.2320   10.6721 C.ar    1  UNL1        0.0115
     20 C          62.5737   87.9263    9.9493 C.ar    1  UNL1        0.0036
     21 C          61.4542   87.4082    9.0958 C.ar    1  UNL1        0.0312
     22 C          64.2015   82.6022   13.6884 C.3     1  UNL1        0.0986
     23 N          63.6647   81.2316   13.9767 N.3     1  UNL1       -0.2958
     24 H          64.0467   80.6099   13.2639 H       1  UNL1        0.1235
     25 C          62.0087   82.2135   14.8674 C.3     1  UNL1        0.0158
     26 C          62.1835   80.9972   14.0070 C.3     1  UNL1        0.0423
     27 C          62.3583   79.7810   13.1466 C.3     1  UNL1        0.0158
     28 C          60.7022   80.7629   14.0373 C.3     1  UNL1        0.0158
@<TRIPOS>BOND
     1    25    26    1
     2    26    27    1
     3    26    28    1
     4    26    23    1
     5    23    22    1
     6    22     1    1
     7     1     2   ar
     8     2     3   ar
     9     3     4   ar
    10     4     9    1
    11     9    11    1
    12    11    12   ar
    13    12    13   ar
    14    13    14   ar
    15    14    15   ar
    16    15    16   ar
    17    16    17   ar
    18    17    18    1
    19    17    19   ar
    20    19    20   ar
    21    20    21   ar
    22     4     5   ar
    23     5     6   ar
    24     6     7    1
    25     6     1   ar
    26    21    11   ar
    27    21    15   ar
    28    23    24    1
    29     9    10    1
    30     7     8    1
