@<TRIPOS>MOLECULE
*****
 29 32 0 0 0
SMALL
GASTEIGER

@<TRIPOS>ATOM
      1 C          62.7706   89.2816   11.5234 C.2     1  UNL1        0.2463
      2 O          61.5030   89.0274   12.2840 O.2     1  UNL1       -0.2701
      3 N          63.1380   88.4043   10.3636 N.am    1  UNL1       -0.2951
      4 H          63.9700   88.5712    9.8644 H       1  UNL1        0.1503
      5 N          67.4798   93.8580   15.8249 N.pl3   1  UNL1       -0.3375
      6 C          66.6255   93.1786   14.7961 C.ar    1  UNL1        0.1567
      7 N          66.3825   93.6581   13.3957 N.ar    1  UNL1       -0.2245
      8 C          65.4710   92.6762   12.7211 C.ar    1  UNL1        0.0892
      9 C          64.8913   92.6310   11.3384 C.ar    1  UNL1        0.0198
     10 C          63.9912   91.4995   10.9392 C.ar    1  UNL1        0.0061
     11 C          63.6707   90.4132   11.9227 C.ar    1  UNL1        0.0540
     12 C          64.2504   90.4584   13.3054 C.ar    1  UNL1        0.0126
     13 C          65.1505   91.5899   13.7046 C.ar    1  UNL1        0.0498
     14 S          65.8640   91.9004   14.9870 S.2     1  UNL1       -0.0520
     15 H          67.9424   94.6984   15.6035 H       1  UNL1        0.1442
     16 H          67.5781   93.4635   16.7215 H       1  UNL1        0.1442
     17 C          62.2379   87.2728    9.9643 C.3     1  UNL1        0.1171
     18 C          61.0466   87.5343    9.0911 C.ar    1  UNL1       -0.0003
     19 C          60.6602   88.9434    8.7520 C.ar    1  UNL1       -0.0024
     20 C          59.4689   89.2049    7.8788 C.ar    1  UNL1       -0.0003
     21 C          58.6641   88.0573    7.3447 C.ar    1  UNL1       -0.0000
     22 C          59.0506   86.6482    7.6837 C.ar    1  UNL1       -0.0003
     23 C          60.2419   86.3867    8.5570 C.ar    1  UNL1       -0.0024
     24 C          62.5290   85.8797   10.4383 C.ar    1  UNL1       -0.0003
     25 C          63.1639   84.8885    9.5086 C.ar    1  UNL1       -0.0024
     26 C          63.4550   83.4954    9.9825 C.ar    1  UNL1       -0.0003
     27 C          63.1113   83.0936   11.3862 C.ar    1  UNL1       -0.0000
     28 C          62.4764   84.0848   12.3160 C.ar    1  UNL1       -0.0003
     29 C          62.1853   85.4779   11.8420 C.ar    1  UNL1       -0.0024
@<TRIPOS>BOND
     1     5     6    1
     2     6     7   ar
     3     7     8   ar
     4     8     9   ar
     5     9    10   ar
     6    10    11   ar
     7    11     1    1
     8     1     2    2
     9     1     3   am
    10     3    17    1
    11    17    18    1
    12    18    19   ar
    13    19    20   ar
    14    20    21   ar
    15    21    22   ar
    16    22    23   ar
    17    17    24    1
    18    24    25   ar
    19    25    26   ar
    20    26    27   ar
    21    27    28   ar
    22    28    29   ar
    23    11    12   ar
    24    12    13   ar
    25    13    14   ar
    26    14     6   ar
    27    13     8   ar
    28    23    18   ar
    29    29    24   ar
    30     5    15    1
    31     5    16    1
    32     3     4    1
@<TRIPOS>MOLECULE
*****
 29 32 0 0 0
SMALL
GASTEIGER

@<TRIPOS>ATOM
      1 C          62.7635   89.2677   11.5294 C.2     1  UNL1        0.2463
      2 O          61.4861   89.0184   12.2752 O.2     1  UNL1       -0.2701
      3 N          63.1437   88.3856   10.3773 N.am    1  UNL1       -0.2951
      4 H          63.9821   88.5492    9.8879 H       1  UNL1        0.1503
      5 N          67.4681   93.8246   15.8565 N.pl3   1  UNL1       -0.3375
      6 C          66.6133   93.1508   14.8243 C.ar    1  UNL1        0.1567
      7 N          66.3647   93.6413   13.4288 N.ar    1  UNL1       -0.2245
      8 C          65.4548   92.6619   12.7484 C.ar    1  UNL1        0.0892
      9 C          64.8714   92.6263   11.3670 C.ar    1  UNL1        0.0198
     10 C          63.9743   91.4949   10.9607 C.ar    1  UNL1        0.0061
     11 C          63.6606   90.3991   11.9358 C.ar    1  UNL1        0.0540
     12 C          64.2440   90.4347   13.3172 C.ar    1  UNL1        0.0126
     13 C          65.1411   91.5661   13.7235 C.ar    1  UNL1        0.0498
     14 S          65.8571   91.8683   15.0065 S.2     1  UNL1       -0.0520
     15 H          67.9269   94.6686   15.6410 H       1  UNL1        0.1442
     16 H          67.5703   93.4229   16.7495 H       1  UNL1        0.1442
     17 C          62.2466   87.2542    9.9710 C.3     1  UNL1        0.1171
     18 C          62.5408   85.8592   10.4371 C.ar    1  UNL1       -0.0003
     19 C          63.1681   84.8714    9.4985 C.ar    1  UNL1       -0.0024
     20 C          63.4623   83.4764    9.9646 C.ar    1  UNL1       -0.0003
     21 C          63.1292   83.0690   11.3693 C.ar    1  UNL1       -0.0000
     22 C          62.5019   84.0568   12.3079 C.ar    1  UNL1       -0.0003
     23 C          62.2077   85.4519   11.8417 C.ar    1  UNL1       -0.0024
     24 C          61.0553   87.5179    9.0985 C.ar    1  UNL1       -0.0003
     25 C          60.6632   88.9281    8.7706 C.ar    1  UNL1       -0.0024
     26 C          59.4719   89.1918    7.8981 C.ar    1  UNL1       -0.0003
     27 C          58.6726   88.0452    7.3535 C.ar    1  UNL1       -0.0000
     28 C          59.0647   86.6349    7.6814 C.ar    1  UNL1       -0.0003
     29 C          60.2560   86.3713    8.5539 C.ar    1  UNL1       -0.0024
@<TRIPOS>BOND
     1     5     6    1
     2     6     7   ar
     3     7     8   ar
     4     8     9   ar
     5     9    10   ar
     6    10    11   ar
     7    11     1    1
     8     1     2    2
     9     1     3   am
    10     3    17    1
    11    17    18    1
    12    18    19   ar
    13    19    20   ar
    14    20    21   ar
    15    21    22   ar
    16    22    23   ar
    17    17    24    1
    18    24    25   ar
    19    25    26   ar
    20    26    27   ar
    21    27    28   ar
    22    28    29   ar
    23    11    12   ar
    24    12    13   ar
    25    13    14   ar
    26    14     6   ar
    27    13     8   ar
    28    23    18   ar
    29    29    24   ar
    30     5    15    1
    31     5    16    1
    32     3     4    1
@<TRIPOS>MOLECULE
*****
 29 32 0 0 0
SMALL
GASTEIGER

@<TRIPOS>ATOM
      1 C          62.7786   89.2960   11.4849 C.2     1  UNL1        0.2463
      2 O          61.5454   89.0202   12.2931 O.2     1  UNL1       -0.2701
      3 N          63.1162   88.4255   10.3110 N.am    1  UNL1       -0.2951
      4 H          63.9256   88.6066    9.7805 H       1  UNL1        0.1503
      5 N          67.0612   95.8491   10.9029 N.pl3   1  UNL1       -0.3375
      6 C          66.3295   94.5979   11.2888 C.ar    1  UNL1        0.1567
      7 N          66.3230   93.9639   12.6482 N.ar    1  UNL1       -0.2245
      8 C          65.4652   92.7351   12.5825 C.ar    1  UNL1        0.0892
      9 C          65.0933   91.7142   13.6167 C.ar    1  UNL1        0.0198
     10 C          64.1978   90.5679   13.2508 C.ar    1  UNL1        0.0061
     11 C          63.6741   90.4424   11.8508 C.ar    1  UNL1        0.0540
     12 C          64.0460   91.4633   10.8166 C.ar    1  UNL1        0.0126
     13 C          64.9416   92.6096   11.1825 C.ar    1  UNL1        0.0498
     14 S          65.4757   93.7609   10.3829 S.2     1  UNL1       -0.0520
     15 H          67.5990   96.3311   11.5721 H       1  UNL1        0.1442
     16 H          67.0037   96.1884    9.9805 H       1  UNL1        0.1442
     17 C          62.2206   87.2791    9.9451 C.3     1  UNL1        0.1171
     18 C          61.0245   87.5114    9.0703 C.ar    1  UNL1       -0.0003
     19 C          60.6188   88.9099    8.7103 C.ar    1  UNL1       -0.0024
     20 C          59.4227   89.1421    7.8355 C.ar    1  UNL1       -0.0003
     21 C          58.6321   87.9758    7.3208 C.ar    1  UNL1       -0.0000
     22 C          59.0378   86.5773    7.6808 C.ar    1  UNL1       -0.0003
     23 C          60.2340   86.3451    8.5556 C.ar    1  UNL1       -0.0024
     24 C          62.5213   85.9005   10.4541 C.ar    1  UNL1       -0.0003
     25 C          62.1922   85.5360   11.8713 C.ar    1  UNL1       -0.0024
     26 C          62.4928   84.1573   12.3803 C.ar    1  UNL1       -0.0003
     27 C          63.1225   83.1433   11.4720 C.ar    1  UNL1       -0.0000
     28 C          63.4517   83.5078   10.0546 C.ar    1  UNL1       -0.0003
     29 C          63.1510   84.8864    9.5456 C.ar    1  UNL1       -0.0024
@<TRIPOS>BOND
     1     5     6    1
     2     6     7   ar
     3     7     8   ar
     4     8     9   ar
     5     9    10   ar
     6    10    11   ar
     7    11     1    1
     8     1     2    2
     9     1     3   am
    10     3    17    1
    11    17    18    1
    12    18    19   ar
    13    19    20   ar
    14    20    21   ar
    15    21    22   ar
    16    22    23   ar
    17    17    24    1
    18    24    25   ar
    19    25    26   ar
    20    26    27   ar
    21    27    28   ar
    22    28    29   ar
    23    11    12   ar
    24    12    13   ar
    25    13    14   ar
    26    14     6   ar
    27    13     8   ar
    28    23    18   ar
    29    29    24   ar
    30     5    15    1
    31     5    16    1
    32     3     4    1
@<TRIPOS>MOLECULE
*****
 29 32 0 0 0
SMALL
GASTEIGER

@<TRIPOS>ATOM
      1 C          62.8111   88.1817   12.1543 C.2     1  UNL1        0.2463
      2 O          61.3408   88.2845   11.8754 O.2     1  UNL1       -0.2701
      3 N          63.5231   86.8769   11.9533 N.am    1  UNL1       -0.2951
      4 H          64.4881   86.8095   12.1363 H       1  UNL1        0.1503
      5 N          66.5832   95.0661   12.1534 N.pl3   1  UNL1       -0.3375
      6 C          65.9207   93.7502   12.4356 C.ar    1  UNL1        0.1567
      7 N          65.8297   93.0778   13.7733 N.ar    1  UNL1       -0.2245
      8 C          65.0856   91.7877   13.5941 C.ar    1  UNL1        0.0892
      9 C          64.6963   90.7107   14.5627 C.ar    1  UNL1        0.0198
     10 C          63.9382   89.5087   14.0828 C.ar    1  UNL1        0.0061
     11 C          63.5693   89.3838   12.6342 C.ar    1  UNL1        0.0540
     12 C          63.9586   90.4609   11.6656 C.ar    1  UNL1        0.0126
     13 C          64.7167   91.6628   12.1455 C.ar    1  UNL1        0.0498
     14 S          65.2328   92.8757   11.4295 S.2     1  UNL1       -0.0520
     15 H          67.0102   95.5689   12.8842 H       1  UNL1        0.1442
     16 H          66.5909   95.4269   11.2374 H       1  UNL1        0.1442
     17 C          62.7649   85.6749   11.4734 C.3     1  UNL1        0.1171
     18 C          62.5820   84.4929   12.3786 C.ar    1  UNL1       -0.0003
     19 C          62.4904   83.1121   11.7999 C.ar    1  UNL1       -0.0024
     20 C          62.3075   81.9301   12.7051 C.ar    1  UNL1       -0.0003
     21 C          62.2163   82.1289   14.1891 C.ar    1  UNL1       -0.0000
     22 C          62.3080   83.5097   14.7678 C.ar    1  UNL1       -0.0003
     23 C          62.4908   84.6918   13.8625 C.ar    1  UNL1       -0.0024
     24 C          62.1896   85.6548   10.0882 C.ar    1  UNL1       -0.0003
     25 C          60.8062   86.1802    9.8431 C.ar    1  UNL1       -0.0024
     26 C          60.2309   86.1602    8.4579 C.ar    1  UNL1       -0.0003
     27 C          61.0390   85.6148    7.3180 C.ar    1  UNL1       -0.0000
     28 C          62.4224   85.0894    7.5631 C.ar    1  UNL1       -0.0003
     29 C          62.9977   85.1094    8.9483 C.ar    1  UNL1       -0.0024
@<TRIPOS>BOND
     1     5     6    1
     2     6     7   ar
     3     7     8   ar
     4     8     9   ar
     5     9    10   ar
     6    10    11   ar
     7    11     1    1
     8     1     2    2
     9     1     3   am
    10     3    17    1
    11    17    18    1
    12    18    19   ar
    13    19    20   ar
    14    20    21   ar
    15    21    22   ar
    16    22    23   ar
    17    17    24    1
    18    24    25   ar
    19    25    26   ar
    20    26    27   ar
    21    27    28   ar
    22    28    29   ar
    23    11    12   ar
    24    12    13   ar
    25    13    14   ar
    26    14     6   ar
    27    13     8   ar
    28    23    18   ar
    29    29    24   ar
    30     5    15    1
    31     5    16    1
    32     3     4    1
@<TRIPOS>MOLECULE
*****
 29 32 0 0 0
SMALL
GASTEIGER

@<TRIPOS>ATOM
      1 C          62.7223   88.3788   11.9413 C.2     1  UNL1        0.2463
      2 O          61.2348   88.4352   11.7569 O.2     1  UNL1       -0.2701
      3 N          63.4566   87.0890   11.7240 N.am    1  UNL1       -0.2951
      4 H          64.4329   87.0519   11.8450 H       1  UNL1        0.1503
      5 N          66.9502   93.4360   16.2043 N.pl3   1  UNL1       -0.3375
      6 C          66.1509   92.6752   15.1882 C.ar    1  UNL1        0.1567
      7 N          65.7801   93.1575   13.8171 N.ar    1  UNL1       -0.2245
      8 C          64.9822   92.0789   13.1463 C.ar    1  UNL1        0.0892
      9 C          64.3511   91.9945   11.7882 C.ar    1  UNL1        0.0198
     10 C          63.5979   90.7611   11.3865 C.ar    1  UNL1        0.0061
     11 C          63.4756   89.6122   12.3430 C.ar    1  UNL1        0.0540
     12 C          64.1066   89.6965   13.7012 C.ar    1  UNL1        0.0126
     13 C          64.8599   90.9299   14.1028 C.ar    1  UNL1        0.0498
     14 S          65.5823   91.2984   15.3648 S.2     1  UNL1       -0.0520
     15 H          67.2819   94.3387   15.9940 H       1  UNL1        0.1442
     16 H          67.1430   93.0326   17.0814 H       1  UNL1        0.1442
     17 C          62.7032   85.8556   11.3222 C.3     1  UNL1        0.1171
     18 C          62.0945   85.7607    9.9546 C.ar    1  UNL1       -0.0003
     19 C          62.8799   85.1657    8.8237 C.ar    1  UNL1       -0.0024
     20 C          62.2711   85.0708    7.4561 C.ar    1  UNL1       -0.0003
     21 C          60.8768   85.5709    7.2194 C.ar    1  UNL1       -0.0000
     22 C          60.0914   86.1659    8.3504 C.ar    1  UNL1       -0.0003
     23 C          60.7003   86.2608    9.7180 C.ar    1  UNL1       -0.0024
     24 C          62.5588   84.7171   12.2882 C.ar    1  UNL1       -0.0003
     25 C          62.5198   83.3053   11.7830 C.ar    1  UNL1       -0.0024
     26 C          62.3753   82.1668   12.7489 C.ar    1  UNL1       -0.0003
     27 C          62.2698   82.4401   14.2200 C.ar    1  UNL1       -0.0000
     28 C          62.3087   83.8520   14.7252 C.ar    1  UNL1       -0.0003
     29 C          62.4532   84.9905   13.7593 C.ar    1  UNL1       -0.0024
@<TRIPOS>BOND
     1     5     6    1
     2     6     7   ar
     3     7     8   ar
     4     8     9   ar
     5     9    10   ar
     6    10    11   ar
     7    11     1    1
     8     1     2    2
     9     1     3   am
    10     3    17    1
    11    17    18    1
    12    18    19   ar
    13    19    20   ar
    14    20    21   ar
    15    21    22   ar
    16    22    23   ar
    17    17    24    1
    18    24    25   ar
    19    25    26   ar
    20    26    27   ar
    21    27    28   ar
    22    28    29   ar
    23    11    12   ar
    24    12    13   ar
    25    13    14   ar
    26    14     6   ar
    27    13     8   ar
    28    23    18   ar
    29    29    24   ar
    30     5    15    1
    31     5    16    1
    32     3     4    1
@<TRIPOS>MOLECULE
*****
 29 32 0 0 0
SMALL
GASTEIGER

@<TRIPOS>ATOM
      1 C          62.7679   88.2149   12.0773 C.2     1  UNL1        0.2463
      2 O          61.2856   88.2947   11.8615 O.2     1  UNL1       -0.2701
      3 N          63.4922   86.9235   11.8378 N.am    1  UNL1       -0.2951
      4 H          64.4651   86.8711   11.9795 H       1  UNL1        0.1503
      5 N          66.5681   95.0823   11.9311 N.pl3   1  UNL1       -0.3375
      6 C          65.8972   93.7771   12.2416 C.ar    1  UNL1        0.1567
      7 N          65.7889   93.1416   13.5960 N.ar    1  UNL1       -0.2245
      8 C          65.0415   91.8500   13.4437 C.ar    1  UNL1        0.0892
      9 C          64.6372   90.8012   14.4368 C.ar    1  UNL1        0.0198
     10 C          63.8794   89.5895   13.9814 C.ar    1  UNL1        0.0061
     11 C          63.5258   89.4267   12.5328 C.ar    1  UNL1        0.0540
     12 C          63.9300   90.4756   11.5396 C.ar    1  UNL1        0.0126
     13 C          64.6879   91.6872   11.9951 C.ar    1  UNL1        0.0498
     14 S          65.2167   92.8782   11.2522 S.2     1  UNL1       -0.0520
     15 H          66.9893   95.6031   12.6527 H       1  UNL1        0.1442
     16 H          66.5873   95.4180   11.0059 H       1  UNL1        0.1442
     17 C          62.7343   85.7117   11.3824 C.3     1  UNL1        0.1171
     18 C          62.1483   85.6686   10.0023 C.ar    1  UNL1       -0.0003
     19 C          60.7640   86.1923    9.7586 C.ar    1  UNL1       -0.0024
     20 C          60.1779   86.1491    8.3785 C.ar    1  UNL1       -0.0003
     21 C          60.9762   85.5821    7.2421 C.ar    1  UNL1       -0.0000
     22 C          62.3605   85.0584    7.4858 C.ar    1  UNL1       -0.0003
     23 C          62.9465   85.1016    8.8660 C.ar    1  UNL1       -0.0024
     24 C          62.5626   84.5432   12.3071 C.ar    1  UNL1       -0.0003
     25 C          62.4469   84.7676   13.7857 C.ar    1  UNL1       -0.0024
     26 C          62.2751   83.5990   14.7104 C.ar    1  UNL1       -0.0003
     27 C          62.2190   82.2062   14.1565 C.ar    1  UNL1       -0.0000
     28 C          62.3346   81.9818   12.6778 C.ar    1  UNL1       -0.0003
     29 C          62.5064   83.1503   11.7531 C.ar    1  UNL1       -0.0024
@<TRIPOS>BOND
     1     5     6    1
     2     6     7   ar
     3     7     8   ar
     4     8     9   ar
     5     9    10   ar
     6    10    11   ar
     7    11     1    1
     8     1     2    2
     9     1     3   am
    10     3    17    1
    11    17    18    1
    12    18    19   ar
    13    19    20   ar
    14    20    21   ar
    15    21    22   ar
    16    22    23   ar
    17    17    24    1
    18    24    25   ar
    19    25    26   ar
    20    26    27   ar
    21    27    28   ar
    22    28    29   ar
    23    11    12   ar
    24    12    13   ar
    25    13    14   ar
    26    14     6   ar
    27    13     8   ar
    28    23    18   ar
    29    29    24   ar
    30     5    15    1
    31     5    16    1
    32     3     4    1
@<TRIPOS>MOLECULE
*****
 29 32 0 0 0
SMALL
GASTEIGER

@<TRIPOS>ATOM
      1 C          63.2120   89.4689   13.5771 C.2     1  UNL1        0.2463
      2 O          61.7572   89.7735   13.3747 O.2     1  UNL1       -0.2701
      3 N          63.8133   88.2395   12.9631 N.am    1  UNL1       -0.2951
      4 H          64.7681   88.0396   13.0960 H       1  UNL1        0.1503
      5 N          69.2043   94.0386   15.7753 N.pl3   1  UNL1       -0.3375
      6 C          67.9457   93.2398   15.6092 C.ar    1  UNL1        0.1567
      7 N          66.8230   93.1472   16.5996 N.ar    1  UNL1       -0.2245
      8 C          65.7721   92.2434   16.0260 C.ar    1  UNL1        0.0892
      9 C          64.4455   91.7846   16.5547 C.ar    1  UNL1        0.0198
     10 C          63.5921   90.8598   15.7383 C.ar    1  UNL1        0.0061
     11 C          64.0654   90.3938   14.3934 C.ar    1  UNL1        0.0540
     12 C          65.3920   90.8526   13.8648 C.ar    1  UNL1        0.0126
     13 C          66.2454   91.7774   14.6811 C.ar    1  UNL1        0.0498
     14 S          67.5887   92.3932   14.4235 S.2     1  UNL1       -0.0520
     15 H          69.3484   94.5657   16.5943 H       1  UNL1        0.1442
     16 H          69.8864   94.0359   15.0654 H       1  UNL1        0.1442
     17 C          62.9598   87.3146   12.1468 C.3     1  UNL1        0.1171
     18 C          63.0374   85.8329   12.3663 C.ar    1  UNL1       -0.0003
     19 C          63.4499   85.2934   13.7038 C.ar    1  UNL1       -0.0024
     20 C          63.5275   83.8116   13.9233 C.ar    1  UNL1       -0.0003
     21 C          63.1925   82.8692   12.8054 C.ar    1  UNL1       -0.0000
     22 C          62.7800   83.4087   11.4679 C.ar    1  UNL1       -0.0003
     23 C          62.7024   84.8905   11.2484 C.ar    1  UNL1       -0.0024
     24 C          62.0288   87.8716   11.1109 C.ar    1  UNL1       -0.0003
     25 C          60.6892   87.2352   10.8866 C.ar    1  UNL1       -0.0024
     26 C          59.7582   87.7922    9.8508 C.ar    1  UNL1       -0.0003
     27 C          60.1668   88.9857    9.0392 C.ar    1  UNL1       -0.0000
     28 C          61.5065   89.6222    9.2636 C.ar    1  UNL1       -0.0003
     29 C          62.4375   89.0652   10.2994 C.ar    1  UNL1       -0.0024
@<TRIPOS>BOND
     1     5     6    1
     2     6     7   ar
     3     7     8   ar
     4     8     9   ar
     5     9    10   ar
     6    10    11   ar
     7    11     1    1
     8     1     2    2
     9     1     3   am
    10     3    17    1
    11    17    18    1
    12    18    19   ar
    13    19    20   ar
    14    20    21   ar
    15    21    22   ar
    16    22    23   ar
    17    17    24    1
    18    24    25   ar
    19    25    26   ar
    20    26    27   ar
    21    27    28   ar
    22    28    29   ar
    23    11    12   ar
    24    12    13   ar
    25    13    14   ar
    26    14     6   ar
    27    13     8   ar
    28    23    18   ar
    29    29    24   ar
    30     5    15    1
    31     5    16    1
    32     3     4    1
@<TRIPOS>MOLECULE
*****
 29 32 0 0 0
SMALL
GASTEIGER

@<TRIPOS>ATOM
      1 C          63.2534   89.4790   13.6135 C.2     1  UNL1        0.2463
      2 O          61.7837   89.7522   13.4897 O.2     1  UNL1       -0.2701
      3 N          63.8498   88.2707   12.9547 N.am    1  UNL1       -0.2951
      4 H          64.8145   88.0914   13.0359 H       1  UNL1        0.1503
      5 N          69.3195   94.0382   15.6234 N.pl3   1  UNL1       -0.3375
      6 C          68.0509   93.2486   15.4929 C.ar    1  UNL1        0.1567
      7 N          66.9405   93.1912   16.4997 N.ar    1  UNL1       -0.2245
      8 C          65.8732   92.2848   15.9617 C.ar    1  UNL1        0.0892
      9 C          64.5492   91.8524   16.5184 C.ar    1  UNL1        0.0198
     10 C          63.6760   90.9172   15.7356 C.ar    1  UNL1        0.0061
     11 C          64.1268   90.4143   14.3963 C.ar    1  UNL1        0.0540
     12 C          65.4508   90.8468   13.8396 C.ar    1  UNL1        0.0126
     13 C          66.3240   91.7820   14.6223 C.ar    1  UNL1        0.0498
     14 S          67.6699   92.3776   14.3326 S.2     1  UNL1       -0.0520
     15 H          69.4796   94.5832   16.4275 H       1  UNL1        0.1442
     16 H          69.9921   94.0115   14.9049 H       1  UNL1        0.1442
     17 C          62.9765   87.3354   12.1719 C.3     1  UNL1        0.1171
     18 C          62.0384   87.8769   11.1343 C.ar    1  UNL1       -0.0003
     19 C          62.4286   89.0772   10.3237 C.ar    1  UNL1       -0.0024
     20 C          61.4905   89.6186    9.2861 C.ar    1  UNL1       -0.0003
     21 C          60.1622   88.9598    9.0589 C.ar    1  UNL1       -0.0000
     22 C          59.7720   87.7595    9.8695 C.ar    1  UNL1       -0.0003
     23 C          60.7102   87.2180   10.9072 C.ar    1  UNL1       -0.0024
     24 C          63.0413   85.8587   12.4269 C.ar    1  UNL1       -0.0003
     25 C          62.6998   84.8927   11.3314 C.ar    1  UNL1       -0.0024
     26 C          62.7646   83.4159   11.5864 C.ar    1  UNL1       -0.0003
     27 C          63.1710   82.9052   12.9369 C.ar    1  UNL1       -0.0000
     28 C          63.5125   83.8711   14.0325 C.ar    1  UNL1       -0.0003
     29 C          63.4477   85.3479   13.7775 C.ar    1  UNL1       -0.0024
@<TRIPOS>BOND
     1     5     6    1
     2     6     7   ar
     3     7     8   ar
     4     8     9   ar
     5     9    10   ar
     6    10    11   ar
     7    11     1    1
     8     1     2    2
     9     1     3   am
    10     3    17    1
    11    17    18    1
    12    18    19   ar
    13    19    20   ar
    14    20    21   ar
    15    21    22   ar
    16    22    23   ar
    17    17    24    1
    18    24    25   ar
    19    25    26   ar
    20    26    27   ar
    21    27    28   ar
    22    28    29   ar
    23    11    12   ar
    24    12    13   ar
    25    13    14   ar
    26    14     6   ar
    27    13     8   ar
    28    23    18   ar
    29    29    24   ar
    30     5    15    1
    31     5    16    1
    32     3     4    1
@<TRIPOS>MOLECULE
*****
 29 32 0 0 0
SMALL
GASTEIGER

@<TRIPOS>ATOM
      1 C          63.1349   86.8526   12.4833 C.2     1  UNL1        0.2463
      2 O          62.4824   87.0603   11.1488 O.2     1  UNL1       -0.2701
      3 N          63.5976   88.0337   13.2839 N.am    1  UNL1       -0.2951
      4 H          64.0259   87.8974   14.1598 H       1  UNL1        0.1503
      5 N          62.5457   79.0670   13.2953 N.pl3   1  UNL1       -0.3375
      6 C          62.8302   80.5378   13.3705 C.ar    1  UNL1        0.1567
      7 N          63.7032   81.2163   14.3842 N.ar    1  UNL1       -0.2245
      8 C          63.7042   82.6862   14.0854 C.ar    1  UNL1        0.0892
      9 C          64.3868   83.8450   14.7497 C.ar    1  UNL1        0.0198
     10 C          64.1970   85.2337   14.2157 C.ar    1  UNL1        0.0061
     11 C          63.3246   85.4638   13.0174 C.ar    1  UNL1        0.0540
     12 C          62.6420   84.3050   12.3531 C.ar    1  UNL1        0.0126
     13 C          62.8318   82.9163   12.8871 C.ar    1  UNL1        0.0498
     14 S          62.2917   81.5885   12.4453 S.2     1  UNL1       -0.0520
     15 H          62.9482   78.4535   13.9518 H       1  UNL1        0.1442
     16 H          61.9564   78.7150   12.5895 H       1  UNL1        0.1442
     17 C          63.4078   89.4226   12.7499 C.3     1  UNL1        0.1171
     18 C          62.2585   89.7235   11.8342 C.ar    1  UNL1       -0.0003
     19 C          62.4921   89.8667   10.3594 C.ar    1  UNL1       -0.0024
     20 C          61.3428   90.1676    9.4438 C.ar    1  UNL1       -0.0003
     21 C          59.9598   90.3253   10.0029 C.ar    1  UNL1       -0.0000
     22 C          59.7262   90.1822   11.4776 C.ar    1  UNL1       -0.0003
     23 C          60.8756   89.8812   12.3933 C.ar    1  UNL1       -0.0024
     24 C          64.3674   90.5105   13.1315 C.ar    1  UNL1       -0.0003
     25 C          65.0938   90.4440   14.4422 C.ar    1  UNL1       -0.0024
     26 C          66.0533   91.5319   14.8239 C.ar    1  UNL1       -0.0003
     27 C          66.2866   92.6863   13.8949 C.ar    1  UNL1       -0.0000
     28 C          65.5602   92.7527   12.5841 C.ar    1  UNL1       -0.0003
     29 C          64.6006   91.6648   12.2025 C.ar    1  UNL1       -0.0024
@<TRIPOS>BOND
     1     5     6    1
     2     6     7   ar
     3     7     8   ar
     4     8     9   ar
     5     9    10   ar
     6    10    11   ar
     7    11     1    1
     8     1     2    2
     9     1     3   am
    10     3    17    1
    11    17    18    1
    12    18    19   ar
    13    19    20   ar
    14    20    21   ar
    15    21    22   ar
    16    22    23   ar
    17    17    24    1
    18    24    25   ar
    19    25    26   ar
    20    26    27   ar
    21    27    28   ar
    22    28    29   ar
    23    11    12   ar
    24    12    13   ar
    25    13    14   ar
    26    14     6   ar
    27    13     8   ar
    28    23    18   ar
    29    29    24   ar
    30     5    15    1
    31     5    16    1
    32     3     4    1
