@<TRIPOS>MOLECULE
*****
 26 28 0 0 0
SMALL
GASTEIGER

@<TRIPOS>ATOM
      1 C          63.4309   83.6370   14.6367 C.2     1  UNL1        0.2252
      2 O          64.9190   83.7916   14.5294 O.2     1  UNL1       -0.2750
      3 N          62.6699   84.4059   15.6758 N.am    1  UNL1       -0.3004
      4 H          61.6932   84.3044   15.7463 H       1  UNL1        0.1497
      5 C          62.7037   82.7135   13.7048 C.3     1  UNL1        0.1154
      6 C          63.6418   81.1648   12.8381 C.3     1  UNL1        0.0335
      7 C          63.2131   82.5017   12.3100 C.3     1  UNL1        0.1377
      8 C          62.6779   83.8828   12.0735 C.3     1  UNL1        0.0613
      9 C          62.9461   84.2452   10.6428 C.3     1  UNL1        0.1290
     10 C          63.2808   84.4661    9.1974 C.3     1  UNL1        0.0305
     11 C          62.9127   85.7587    8.5314 C.3     1  UNL1        0.0025
     12 C          62.2098   86.8305    9.3108 C.3     1  UNL1        0.0002
     13 C          61.8751   86.6096   10.7562 C.3     1  UNL1        0.0025
     14 C          62.2433   85.3170   11.4222 C.3     1  UNL1        0.0305
     15 O          63.6471   83.0880    9.9951 O.3     1  UNL1       -0.2256
     16 O          63.8122   82.0104   11.0255 O.3     1  UNL1       -0.2251
     17 C          63.3971   85.3294   16.6077 C.3     1  UNL1        0.1163
     18 C          63.5121   86.7884   16.2792 C.ar    1  UNL1       -0.0022
     19 C          64.2186   87.2224   15.0292 C.ar    1  UNL1        0.0037
     20 C          64.3336   88.6815   14.7007 C.ar    1  UNL1        0.0750
     21 C          63.7421   89.7066   15.6223 C.ar    1  UNL1        0.2900
     22 C          63.0356   89.2726   16.8722 C.ar    1  UNL1        0.0750
     23 C          62.9206   87.8135   17.2007 C.ar    1  UNL1        0.0037
     24 N          63.8571   91.1657   15.2937 N.pl3   1  UNL1        0.0809
     25 O          63.7665   92.1897   16.3860 O.2     1  UNL1        0.0415
     26 O          64.0626   91.6006   13.8730 O.co2   1  UNL1       -0.5760
@<TRIPOS>UNITY_ATOM_ATTR
24 1
charge 1
26 1
charge -1
@<TRIPOS>BOND
     1     6     7    1
     2     7     5    1
     3     5     1    1
     4     1     2    2
     5     1     3   am
     6     3    17    1
     7    17    18    1
     8    18    19   ar
     9    19    20   ar
    10    20    21   ar
    11    21    24    1
    12    24    25    2
    13    24    26    1
    14    21    22   ar
    15    22    23   ar
    16     7     8    1
    17     8     9    1
    18     9    10    1
    19    10    11    1
    20    11    12    1
    21    12    13    1
    22    13    14    1
    23     9    15    1
    24    15    16    1
    25    16     7    1
    26    23    18   ar
    27    14     9    1
    28     3     4    1
@<TRIPOS>MOLECULE
*****
 26 28 0 0 0
SMALL
GASTEIGER

@<TRIPOS>ATOM
      1 C          64.0339   87.4192   14.3900 C.2     1  UNL1        0.2252
      2 O          63.5442   87.5198   12.9759 O.2     1  UNL1       -0.2750
      3 N          64.0183   88.6288   15.2771 N.am    1  UNL1       -0.3004
      4 H          64.3397   88.5627   16.2053 H       1  UNL1        0.1497
      5 C          64.5391   86.1089   14.9174 C.3     1  UNL1        0.1154
      6 C          63.3459   85.6118   16.4531 C.3     1  UNL1        0.0335
      7 C          63.5893   84.9661   15.1213 C.3     1  UNL1        0.1377
      8 C          64.0312   84.5594   13.7468 C.3     1  UNL1        0.0613
      9 C          63.3035   83.3001   13.3795 C.3     1  UNL1        0.1290
     10 C          62.5066   82.0497   13.1530 C.3     1  UNL1        0.0305
     11 C          62.6461   81.2946   11.8645 C.3     1  UNL1        0.0025
     12 C          63.5826   81.7898   10.8025 C.3     1  UNL1        0.0002
     13 C          64.3796   83.0402   11.0291 C.3     1  UNL1        0.0025
     14 C          64.2400   83.7953   12.3176 C.3     1  UNL1        0.0305
     15 O          62.4119   82.9286   14.5271 O.3     1  UNL1       -0.2256
     16 O          62.5884   83.9582   15.6036 O.3     1  UNL1       -0.2251
     17 C          63.5130   89.9390   14.7497 C.3     1  UNL1        0.1163
     18 C          64.3836   90.7748   13.8589 C.ar    1  UNL1       -0.0022
     19 C          65.7220   91.2456   14.3458 C.ar    1  UNL1        0.0037
     20 C          66.5925   92.0814   13.4550 C.ar    1  UNL1        0.0750
     21 C          66.1247   92.4464   12.0774 C.ar    1  UNL1        0.2900
     22 C          64.7864   91.9756   11.5905 C.ar    1  UNL1        0.0750
     23 C          63.9158   91.1398   12.4813 C.ar    1  UNL1        0.0037
     24 N          66.9954   93.2823   11.1866 N.pl3   1  UNL1        0.0809
     25 O          66.8349   94.7735   11.1662 O.2     1  UNL1        0.0415
     26 O          68.0264   92.6268   10.3164 O.co2   1  UNL1       -0.5760
@<TRIPOS>UNITY_ATOM_ATTR
24 1
charge 1
26 1
charge -1
@<TRIPOS>BOND
     1     6     7    1
     2     7     5    1
     3     5     1    1
     4     1     2    2
     5     1     3   am
     6     3    17    1
     7    17    18    1
     8    18    19   ar
     9    19    20   ar
    10    20    21   ar
    11    21    24    1
    12    24    25    2
    13    24    26    1
    14    21    22   ar
    15    22    23   ar
    16     7     8    1
    17     8     9    1
    18     9    10    1
    19    10    11    1
    20    11    12    1
    21    12    13    1
    22    13    14    1
    23     9    15    1
    24    15    16    1
    25    16     7    1
    26    23    18   ar
    27    14     9    1
    28     3     4    1
@<TRIPOS>MOLECULE
*****
 26 28 0 0 0
SMALL
GASTEIGER

@<TRIPOS>ATOM
      1 C          64.2535   87.5465   14.3467 C.2     1  UNL1        0.2252
      2 O          64.5868   88.9122   14.8698 O.2     1  UNL1       -0.2750
      3 N          63.5361   87.3992   13.0375 N.am    1  UNL1       -0.3004
      4 H          63.3173   86.5029   12.6942 H       1  UNL1        0.1497
      5 C          64.6376   86.3279   15.1327 C.3     1  UNL1        0.1154
      6 C          63.4016   86.0606   16.6917 C.3     1  UNL1        0.0335
      7 C          63.6125   85.2746   15.4317 C.3     1  UNL1        0.1377
      8 C          64.0377   84.7087   14.1092 C.3     1  UNL1        0.0613
      9 C          63.2313   83.4698   13.8541 C.3     1  UNL1        0.1290
     10 C          62.3552   82.2579   13.7373 C.3     1  UNL1        0.0305
     11 C          62.4549   81.3741   12.5294 C.3     1  UNL1        0.0025
     12 C          63.4307   81.7022   11.4385 C.3     1  UNL1        0.0002
     13 C          64.3068   82.9141   11.5554 C.3     1  UNL1        0.0025
     14 C          64.2071   83.7979   12.7632 C.3     1  UNL1        0.0305
     15 O          62.3077   83.2700   15.0191 O.3     1  UNL1       -0.2256
     16 O          62.5433   84.3854   15.9941 O.3     1  UNL1       -0.2251
     17 C          63.1520   88.6178   12.2516 C.3     1  UNL1        0.1163
     18 C          62.1844   88.5006   11.1115 C.ar    1  UNL1       -0.0022
     19 C          61.9333   87.1657   10.4751 C.ar    1  UNL1        0.0037
     20 C          60.9656   87.0486    9.3349 C.ar    1  UNL1        0.0750
     21 C          60.2492   88.2663    8.8311 C.ar    1  UNL1        0.2900
     22 C          60.5004   89.6011    9.4675 C.ar    1  UNL1        0.0750
     23 C          61.4680   89.7184   10.6077 C.ar    1  UNL1        0.0037
     24 N          59.2816   88.1491    7.6909 N.pl3   1  UNL1        0.0809
     25 O          58.3978   86.9423    7.5784 O.2     1  UNL1        0.0415
     26 O          59.1978   89.2386    6.6634 O.co2   1  UNL1       -0.5760
@<TRIPOS>UNITY_ATOM_ATTR
24 1
charge 1
26 1
charge -1
@<TRIPOS>BOND
     1     6     7    1
     2     7     5    1
     3     5     1    1
     4     1     2    2
     5     1     3   am
     6     3    17    1
     7    17    18    1
     8    18    19   ar
     9    19    20   ar
    10    20    21   ar
    11    21    24    1
    12    24    25    2
    13    24    26    1
    14    21    22   ar
    15    22    23   ar
    16     7     8    1
    17     8     9    1
    18     9    10    1
    19    10    11    1
    20    11    12    1
    21    12    13    1
    22    13    14    1
    23     9    15    1
    24    15    16    1
    25    16     7    1
    26    23    18   ar
    27    14     9    1
    28     3     4    1
@<TRIPOS>MOLECULE
*****
 26 28 0 0 0
SMALL
GASTEIGER

@<TRIPOS>ATOM
      1 C          60.9924   88.9965   11.0038 C.2     1  UNL1        0.2252
      2 O          59.9137   90.0297   11.1400 O.2     1  UNL1       -0.2750
      3 N          62.4344   89.4076   11.0454 N.am    1  UNL1       -0.3004
      4 H          63.1424   88.7294   10.9560 H       1  UNL1        0.1497
      5 C          60.6292   87.5519   10.8261 C.3     1  UNL1        0.1154
      6 C          60.6215   87.6286    8.8201 C.3     1  UNL1        0.0335
      7 C          61.3277   86.7254    9.7874 C.3     1  UNL1        0.1377
      8 C          61.8878   85.9951   10.9718 C.3     1  UNL1        0.0613
      9 C          62.7850   84.9058   10.4630 C.3     1  UNL1        0.1290
     10 C          63.6461   83.8660    9.8094 C.3     1  UNL1        0.0305
     11 C          64.4140   82.8908   10.6516 C.3     1  UNL1        0.0025
     12 C          64.3209   82.9556   12.1473 C.3     1  UNL1        0.0002
     13 C          63.4598   83.9954   12.8009 C.3     1  UNL1        0.0025
     14 C          62.6919   84.9706   11.9587 C.3     1  UNL1        0.0305
     15 O          62.7793   84.9631    8.9641 O.3     1  UNL1       -0.2256
     16 O          61.8786   86.0877    8.5465 O.3     1  UNL1       -0.2251
     17 C          62.7976   90.8521   11.2232 C.3     1  UNL1        0.1163
     18 C          63.9527   91.2324   12.1012 C.ar    1  UNL1       -0.0022
     19 C          64.9374   92.2656   11.6396 C.ar    1  UNL1        0.0037
     20 C          66.0925   92.6459   12.5176 C.ar    1  UNL1        0.0750
     21 C          66.2630   91.9931   13.8573 C.ar    1  UNL1        0.2900
     22 C          65.2784   90.9600   14.3189 C.ar    1  UNL1        0.0750
     23 C          64.1232   90.5796   13.4409 C.ar    1  UNL1        0.0037
     24 N          67.4182   92.3735   14.7354 N.pl3   1  UNL1        0.0809
     25 O          67.1812   92.7353   16.1716 O.2     1  UNL1        0.0415
     26 O          68.8103   92.3920   14.1770 O.co2   1  UNL1       -0.5760
@<TRIPOS>UNITY_ATOM_ATTR
24 1
charge 1
26 1
charge -1
@<TRIPOS>BOND
     1     6     7    1
     2     7     5    1
     3     5     1    1
     4     1     2    2
     5     1     3   am
     6     3    17    1
     7    17    18    1
     8    18    19   ar
     9    19    20   ar
    10    20    21   ar
    11    21    24    1
    12    24    25    2
    13    24    26    1
    14    21    22   ar
    15    22    23   ar
    16     7     8    1
    17     8     9    1
    18     9    10    1
    19    10    11    1
    20    11    12    1
    21    12    13    1
    22    13    14    1
    23     9    15    1
    24    15    16    1
    25    16     7    1
    26    23    18   ar
    27    14     9    1
    28     3     4    1
@<TRIPOS>MOLECULE
*****
 26 28 0 0 0
SMALL
GASTEIGER

@<TRIPOS>ATOM
      1 C          62.8327   84.2069   14.5682 C.2     1  UNL1        0.2252
      2 O          61.6398   84.8511   15.2099 O.2     1  UNL1       -0.2750
      3 N          64.1674   84.8901   14.6101 N.am    1  UNL1       -0.3004
      4 H          64.9504   84.4673   14.1889 H       1  UNL1        0.1497
      5 C          62.6909   82.8792   13.8845 C.3     1  UNL1        0.1154
      6 C          64.0204   81.4668   13.3675 C.3     1  UNL1        0.0335
      7 C          63.4255   82.6128   12.6042 C.3     1  UNL1        0.1377
      8 C          62.6771   83.8145   12.1084 C.3     1  UNL1        0.0613
      9 C          63.0735   84.0513   10.6812 C.3     1  UNL1        0.1290
     10 C          63.5635   84.1627    9.2679 C.3     1  UNL1        0.0305
     11 C          63.0556   85.2619    8.3825 C.3     1  UNL1        0.0025
     12 C          62.0578   86.2496    8.9105 C.3     1  UNL1        0.0002
     13 C          61.5678   86.1382   10.3238 C.3     1  UNL1        0.0025
     14 C          62.0756   85.0391   11.2091 C.3     1  UNL1        0.0305
     15 O          64.0669   82.9959   10.2949 O.3     1  UNL1       -0.2256
     16 O          64.2845   82.1069   11.4833 O.3     1  UNL1       -0.2251
     17 C          64.3091   86.2177   15.2938 C.3     1  UNL1        0.1163
     18 C          64.1724   87.4860   14.5048 C.ar    1  UNL1       -0.0022
     19 C          64.6578   88.7834   15.0803 C.ar    1  UNL1        0.0037
     20 C          64.5210   90.0517   14.2913 C.ar    1  UNL1        0.0750
     21 C          63.8988   90.0227   12.9267 C.ar    1  UNL1        0.2900
     22 C          63.4134   88.7255   12.3512 C.ar    1  UNL1        0.0750
     23 C          63.5501   87.4570   13.1402 C.ar    1  UNL1        0.0037
     24 N          63.7620   91.2912   12.1377 N.pl3   1  UNL1        0.0809
     25 O          62.7783   91.3693   11.0081 O.2     1  UNL1        0.0415
     26 O          64.6090   92.4813   12.4784 O.co2   1  UNL1       -0.5760
@<TRIPOS>UNITY_ATOM_ATTR
24 1
charge 1
26 1
charge -1
@<TRIPOS>BOND
     1     6     7    1
     2     7     5    1
     3     5     1    1
     4     1     2    2
     5     1     3   am
     6     3    17    1
     7    17    18    1
     8    18    19   ar
     9    19    20   ar
    10    20    21   ar
    11    21    24    1
    12    24    25    2
    13    24    26    1
    14    21    22   ar
    15    22    23   ar
    16     7     8    1
    17     8     9    1
    18     9    10    1
    19    10    11    1
    20    11    12    1
    21    12    13    1
    22    13    14    1
    23     9    15    1
    24    15    16    1
    25    16     7    1
    26    23    18   ar
    27    14     9    1
    28     3     4    1
@<TRIPOS>MOLECULE
*****
 26 28 0 0 0
SMALL
GASTEIGER

@<TRIPOS>ATOM
      1 C          60.7187   88.0645   11.1742 C.2     1  UNL1        0.2252
      2 O          59.7296   88.4602   12.2301 O.2     1  UNL1       -0.2750
      3 N          62.1200   88.5977   11.2215 N.am    1  UNL1       -0.3004
      4 H          62.7692   88.3380   10.5284 H       1  UNL1        0.1497
      5 C          60.3066   87.1354   10.0709 C.3     1  UNL1        0.1154
      6 C          60.8282   87.1480    8.1326 C.3     1  UNL1        0.0335
      7 C          61.3464   86.3712    9.3064 C.3     1  UNL1        0.1377
      8 C          61.6472   85.7542   10.6401 C.3     1  UNL1        0.0613
      9 C          62.7648   84.7709   10.4546 C.3     1  UNL1        0.1290
     10 C          63.8810   83.8275   10.1171 C.3     1  UNL1        0.0305
     11 C          64.5000   82.9832   11.1912 C.3     1  UNL1        0.0025
     12 C          64.0027   83.0822   12.6029 C.3     1  UNL1        0.0002
     13 C          62.8865   84.0256   12.9404 C.3     1  UNL1        0.0025
     14 C          62.2675   84.8699   11.8662 C.3     1  UNL1        0.0305
     15 O          63.1546   84.7803    9.0061 O.3     1  UNL1       -0.2256
     16 O          62.2780   85.7693    8.2965 O.3     1  UNL1       -0.2251
     17 C          62.5321   89.5267   12.3247 C.3     1  UNL1        0.1163
     18 C          63.5134   90.6276   12.0508 C.ar    1  UNL1       -0.0022
     19 C          63.5969   91.2344   10.6815 C.ar    1  UNL1        0.0037
     20 C          64.5782   92.3353   10.4077 C.ar    1  UNL1        0.0750
     21 C          65.4760   92.8294   11.5030 C.ar    1  UNL1        0.2900
     22 C          65.3925   92.2227   12.8722 C.ar    1  UNL1        0.0750
     23 C          64.4111   91.1218   13.1462 C.ar    1  UNL1        0.0037
     24 N          66.4573   93.9304   11.2291 N.pl3   1  UNL1        0.0809
     25 O          67.7137   93.6415   10.4623 O.2     1  UNL1        0.0415
     26 O          66.1822   95.3201   11.7218 O.co2   1  UNL1       -0.5760
@<TRIPOS>UNITY_ATOM_ATTR
24 1
charge 1
26 1
charge -1
@<TRIPOS>BOND
     1     6     7    1
     2     7     5    1
     3     5     1    1
     4     1     2    2
     5     1     3   am
     6     3    17    1
     7    17    18    1
     8    18    19   ar
     9    19    20   ar
    10    20    21   ar
    11    21    24    1
    12    24    25    2
    13    24    26    1
    14    21    22   ar
    15    22    23   ar
    16     7     8    1
    17     8     9    1
    18     9    10    1
    19    10    11    1
    20    11    12    1
    21    12    13    1
    22    13    14    1
    23     9    15    1
    24    15    16    1
    25    16     7    1
    26    23    18   ar
    27    14     9    1
    28     3     4    1
@<TRIPOS>MOLECULE
*****
 26 28 0 0 0
SMALL
GASTEIGER

@<TRIPOS>ATOM
      1 C          63.6386   85.7912   14.6746 C.2     1  UNL1        0.2252
      2 O          64.2313   85.5604   16.0330 O.2     1  UNL1       -0.2750
      3 N          63.6504   87.1661   14.0749 N.am    1  UNL1       -0.3004
      4 H          63.2614   87.3176   13.1833 H       1  UNL1        0.1497
      5 C          63.0340   84.6471   13.9158 C.3     1  UNL1        0.1154
      6 C          64.5794   83.3962   13.6392 C.3     1  UNL1        0.0335
      7 C          63.7010   84.1352   12.6737 C.3     1  UNL1        0.1377
      8 C          62.6831   84.9813   11.9678 C.3     1  UNL1        0.0613
      9 C          62.9047   84.8378   10.4912 C.3     1  UNL1        0.1290
     10 C          63.2444   84.5971    9.0502 C.3     1  UNL1        0.0305
     11 C          62.4506   85.2702    7.9700 C.3     1  UNL1        0.0025
     12 C          61.3170   86.1838    8.3309 C.3     1  UNL1        0.0002
     13 C          60.9773   86.4245    9.7719 C.3     1  UNL1        0.0025
     14 C          61.7711   85.7514   10.8521 C.3     1  UNL1        0.0305
     15 O          64.0595   83.9030   10.2844 O.3     1  UNL1       -0.2256
     16 O          64.5516   83.4688   11.6333 O.3     1  UNL1       -0.2251
     17 C          64.2550   88.3101   14.8337 C.3     1  UNL1        0.1163
     18 C          64.5936   89.5864   14.1222 C.ar    1  UNL1       -0.0022
     19 C          63.8290   89.9868   12.8954 C.ar    1  UNL1        0.0037
     20 C          64.1675   91.2632   12.1839 C.ar    1  UNL1        0.0750
     21 C          65.2708   92.1392   12.6992 C.ar    1  UNL1        0.2900
     22 C          66.0354   91.7388   13.9259 C.ar    1  UNL1        0.0750
     23 C          65.6969   90.4624   14.6374 C.ar    1  UNL1        0.0037
     24 N          65.6093   93.4156   11.9876 N.pl3   1  UNL1        0.0809
     25 O          65.0913   93.6616   10.6015 O.2     1  UNL1        0.0415
     26 O          66.4658   94.4458   12.6621 O.co2   1  UNL1       -0.5760
@<TRIPOS>UNITY_ATOM_ATTR
24 1
charge 1
26 1
charge -1
@<TRIPOS>BOND
     1     6     7    1
     2     7     5    1
     3     5     1    1
     4     1     2    2
     5     1     3   am
     6     3    17    1
     7    17    18    1
     8    18    19   ar
     9    19    20   ar
    10    20    21   ar
    11    21    24    1
    12    24    25    2
    13    24    26    1
    14    21    22   ar
    15    22    23   ar
    16     7     8    1
    17     8     9    1
    18     9    10    1
    19    10    11    1
    20    11    12    1
    21    12    13    1
    22    13    14    1
    23     9    15    1
    24    15    16    1
    25    16     7    1
    26    23    18   ar
    27    14     9    1
    28     3     4    1
@<TRIPOS>MOLECULE
*****
 26 28 0 0 0
SMALL
GASTEIGER

@<TRIPOS>ATOM
      1 C          63.2437   89.3080   14.1764 C.2     1  UNL1        0.2252
      2 O          62.8436   89.4005   15.6190 O.2     1  UNL1       -0.2750
      3 N          63.9630   88.0913   13.6741 N.am    1  UNL1       -0.3004
      4 H          64.2256   88.0305   12.7272 H       1  UNL1        0.1497
      5 C          62.9245   90.4322   13.2359 C.3     1  UNL1        0.1154
      6 C          63.2848   90.7704   11.2903 C.3     1  UNL1        0.0335
      7 C          64.0321   91.1582   12.5317 C.3     1  UNL1        0.1377
      8 C          64.5478   91.3943   13.9203 C.3     1  UNL1        0.0613
      9 C          65.8181   92.1852   13.8149 C.3     1  UNL1        0.1290
     10 C          67.0678   92.9726   13.5538 C.3     1  UNL1        0.0305
     11 C          67.9192   93.4304   14.7007 C.3     1  UNL1        0.0025
     12 C          67.5209   93.1007   16.1088 C.3     1  UNL1        0.0002
     13 C          66.2712   92.3133   16.3699 C.3     1  UNL1        0.0025
     14 C          65.4198   91.8555   15.2230 C.3     1  UNL1        0.0305
     15 O          66.0874   92.4379   12.3610 O.3     1  UNL1       -0.2256
     16 O          64.9836   91.8032   11.5680 O.3     1  UNL1       -0.2251
     17 C          64.2822   86.9671   14.6145 C.3     1  UNL1        0.1163
     18 C          63.7115   85.6013   14.3718 C.ar    1  UNL1       -0.0022
     19 C          63.4142   84.6960   15.5302 C.ar    1  UNL1        0.0037
     20 C          62.8436   83.3302   15.2875 C.ar    1  UNL1        0.0750
     21 C          62.5703   82.8697   13.8863 C.ar    1  UNL1        0.2900
     22 C          62.8676   83.7750   12.7280 C.ar    1  UNL1        0.0750
     23 C          63.4382   85.1409   12.9706 C.ar    1  UNL1        0.0037
     24 N          61.9996   81.5038   13.6437 N.pl3   1  UNL1        0.0809
     25 O          60.7804   81.0563   14.3941 O.2     1  UNL1        0.0415
     26 O          62.6482   80.5857   12.6506 O.co2   1  UNL1       -0.5760
@<TRIPOS>UNITY_ATOM_ATTR
24 1
charge 1
26 1
charge -1
@<TRIPOS>BOND
     1     6     7    1
     2     7     5    1
     3     5     1    1
     4     1     2    2
     5     1     3   am
     6     3    17    1
     7    17    18    1
     8    18    19   ar
     9    19    20   ar
    10    20    21   ar
    11    21    24    1
    12    24    25    2
    13    24    26    1
    14    21    22   ar
    15    22    23   ar
    16     7     8    1
    17     8     9    1
    18     9    10    1
    19    10    11    1
    20    11    12    1
    21    12    13    1
    22    13    14    1
    23     9    15    1
    24    15    16    1
    25    16     7    1
    26    23    18   ar
    27    14     9    1
    28     3     4    1
@<TRIPOS>MOLECULE
*****
 26 28 0 0 0
SMALL
GASTEIGER

@<TRIPOS>ATOM
      1 C          65.0422   90.5544   13.9485 C.2     1  UNL1        0.2252
      2 O          64.8353   89.5848   15.0740 O.2     1  UNL1       -0.2750
      3 N          63.9836   90.7223   12.8990 N.am    1  UNL1       -0.3004
      4 H          64.1194   91.3587   12.1603 H       1  UNL1        0.1497
      5 C          66.3077   91.3563   13.8723 C.3     1  UNL1        0.1154
      6 C          65.8007   92.8657   15.0947 C.3     1  UNL1        0.0335
      7 C          66.2438   92.8400   13.6619 C.3     1  UNL1        0.1377
      8 C          66.7003   92.5041   12.2731 C.3     1  UNL1        0.0613
      9 C          66.8259   93.7857   11.5037 C.3     1  UNL1        0.1290
     10 C          66.9049   95.1407   10.8652 C.3     1  UNL1        0.0305
     11 C          67.3339   95.2714    9.4339 C.3     1  UNL1        0.0025
     12 C          67.6840   94.0471    8.6411 C.3     1  UNL1        0.0002
     13 C          67.6050   92.6921    9.2796 C.3     1  UNL1        0.0025
     14 C          67.1759   92.5614   10.7109 C.3     1  UNL1        0.0305
     15 O          66.4471   94.9137   12.4171 O.3     1  UNL1       -0.2256
     16 O          66.0873   94.3292   13.7510 O.3     1  UNL1       -0.2251
     17 C          62.7182   89.9205   12.9752 C.3     1  UNL1        0.1163
     18 C          62.0032   89.5264   11.7169 C.ar    1  UNL1       -0.0022
     19 C          60.8487   90.3465   11.2221 C.ar    1  UNL1        0.0037
     20 C          60.1337   89.9524    9.9637 C.ar    1  UNL1        0.0750
     21 C          60.5730   88.7383    9.2003 C.ar    1  UNL1        0.2900
     22 C          61.7274   87.9183    9.6951 C.ar    1  UNL1        0.0750
     23 C          62.4425   88.3123   10.9534 C.ar    1  UNL1        0.0037
     24 N          59.8579   88.3442    7.9419 N.pl3   1  UNL1        0.0809
     25 O          59.4955   89.3877    6.9272 O.2     1  UNL1        0.0415
     26 O          59.5053   86.9068    7.6984 O.co2   1  UNL1       -0.5760
@<TRIPOS>UNITY_ATOM_ATTR
24 1
charge 1
26 1
charge -1
@<TRIPOS>BOND
     1     6     7    1
     2     7     5    1
     3     5     1    1
     4     1     2    2
     5     1     3   am
     6     3    17    1
     7    17    18    1
     8    18    19   ar
     9    19    20   ar
    10    20    21   ar
    11    21    24    1
    12    24    25    2
    13    24    26    1
    14    21    22   ar
    15    22    23   ar
    16     7     8    1
    17     8     9    1
    18     9    10    1
    19    10    11    1
    20    11    12    1
    21    12    13    1
    22    13    14    1
    23     9    15    1
    24    15    16    1
    25    16     7    1
    26    23    18   ar
    27    14     9    1
    28     3     4    1
