@<TRIPOS>MOLECULE
*****
 42 45 0 0 0
SMALL
GASTEIGER

@<TRIPOS>ATOM
      1 C          65.3948   91.9552   13.0562 C.ar    1  UNL1        0.0548
      2 C          65.9734   91.4965   14.3619 C.ar    1  UNL1        0.0077
      3 C          65.2152   90.5264   15.2186 C.ar    1  UNL1        0.0390
      4 C          63.8785   90.0149   14.7697 C.ar    1  UNL1        0.1598
      5 C          63.3000   90.4736   13.4640 C.ar    1  UNL1        0.0993
      6 C          64.0581   91.4437   12.6073 C.ar    1  UNL1        0.0235
      7 N          66.1752   92.7519   10.7097 N.am    1  UNL1       -0.3040
      8 C          66.1530   92.9253   12.1994 C.2     1  UNL1        0.2458
      9 O          66.8889   94.0688   12.8324 O.2     1  UNL1       -0.2701
     10 H          65.6921   92.0014   10.2942 H       1  UNL1        0.1496
     11 C          68.0239   92.7085    9.6702 C.3     1  UNL1        0.0196
     12 C          66.9333   93.7221    9.8529 C.3     1  UNL1        0.0572
     13 C          65.8428   94.7356   10.0356 C.3     1  UNL1        0.0196
     14 C          67.6915   94.6922    8.9961 C.3     1  UNL1        0.0196
     15 N          61.9632   89.9621   13.0151 N.pl3   1  UNL1       -0.2120
     16 H          61.1445   90.2505   13.4795 H       1  UNL1        0.1738
     17 S          61.8739   89.0112   11.8584 S.O2    1  UNL1        0.0745
     18 O          60.4301   88.7589   12.1774 O.2     1  UNL1       -0.1499
     19 O          63.3177   89.2636   11.5395 O.2     1  UNL1       -0.1499
     20 C          61.7846   88.0603   10.7017 C.ar    1  UNL1        0.1356
     21 C          62.4796   86.7326   10.7670 C.ar    1  UNL1        0.0207
     22 C          62.3903   85.7817    9.6104 C.ar    1  UNL1       -0.0028
     23 C          61.6061   86.1585    8.3885 C.ar    1  UNL1       -0.0216
     24 C          60.9112   87.4862    8.3232 C.ar    1  UNL1        0.0085
     25 C          61.0004   88.4371    9.4799 C.ar    1  UNL1        0.0762
     26 CL         60.3055   89.7648    9.4146 Cl      1  UNL1       -0.0809
     27 C          61.5169   85.2076    7.2318 C.3     1  UNL1        0.0224
     28 C          60.6928   84.3715    6.2981 C.3     1  UNL1        0.0047
     29 C          62.1864   84.3968    6.1621 C.3     1  UNL1        0.0047
     30 O          63.1204   89.0448   15.6265 O.3     1  UNL1       -0.4513
     31 C          63.3793   87.5726   15.5016 C.ar    1  UNL1        0.1580
     32 C          63.8390   87.0002   14.1936 C.ar    1  UNL1        0.0677
     33 C          64.0979   85.5279   14.0688 C.ar    1  UNL1        0.1396
     34 F          64.5576   84.9555   12.7607 F       1  UNL1       -0.2044
     35 C          63.8970   84.6281   15.2520 C.ar    1  UNL1        0.0119
     36 C          63.4373   85.2006   16.5601 C.ar    1  UNL1        0.0128
     37 C          63.1784   86.6727   16.6849 C.ar    1  UNL1        0.0919
     38 CL         62.7187   87.2451   17.9929 Cl      1  UNL1       -0.0791
     39 C          64.1559   83.1559   15.1272 C.3     1  UNL1        0.0703
     40 C          63.3242   82.3244   14.1961 C.2     1  UNL1        0.0548
     41 O          61.9131   81.9719   14.5631 O.co2   1  UNL1       -0.5488
     42 O          63.9036   81.8454   12.8981 O.co2   1  UNL1       -0.5488
@<TRIPOS>UNITY_ATOM_ATTR
41 1
charge -1
@<TRIPOS>BOND
     1    11    12    1
     2    12    13    1
     3    12    14    1
     4    12     7    1
     5     7     8   am
     6     8     9    2
     7     8     1    1
     8     1     2   ar
     9     2     3   ar
    10     3     4   ar
    11     4    30    1
    12    30    31    1
    13    31    32   ar
    14    32    33   ar
    15    33    34    1
    16    33    35   ar
    17    35    39    1
    18    39    40    1
    19    40    41   ar
    20    40    42   ar
    21    35    36   ar
    22    36    37   ar
    23    37    38    1
    24     4     5   ar
    25     5    15    1
    26    15    17    1
    27    17    18    2
    28    17    19    2
    29    17    20    1
    30    20    21   ar
    31    21    22   ar
    32    22    23   ar
    33    23    27    1
    34    27    28    1
    35    28    29    1
    36    23    24   ar
    37    24    25   ar
    38    25    26    1
    39     5     6   ar
    40     6     1   ar
    41    37    31   ar
    42    25    20   ar
    43    29    27    1
    44     7    10    1
    45    15    16    1
@<TRIPOS>MOLECULE
*****
 42 45 0 0 0
SMALL
GASTEIGER

@<TRIPOS>ATOM
      1 C          60.5336   88.4717    8.7856 C.ar    1  UNL1        0.0548
      2 C          61.3827   87.2369    8.7201 C.ar    1  UNL1        0.0077
      3 C          62.2192   86.8385    9.8998 C.ar    1  UNL1        0.0390
      4 C          62.2067   87.6748   11.1448 C.ar    1  UNL1        0.1598
      5 C          61.3577   88.9096   11.2103 C.ar    1  UNL1        0.0993
      6 C          60.5211   89.3081   10.0307 C.ar    1  UNL1        0.0235
      7 N          59.8982   90.2099    6.9622 N.am    1  UNL1       -0.3040
      8 C          59.6971   88.8701    7.6060 C.2     1  UNL1        0.2458
      9 O          58.6595   87.9288    7.0702 O.2     1  UNL1       -0.2701
     10 H          60.5792   90.8278    7.3139 H       1  UNL1        0.1496
     11 C          57.8232   90.1961    6.5217 C.3     1  UNL1        0.0196
     12 C          59.0617   90.6084    5.7826 C.3     1  UNL1        0.0572
     13 C          60.3002   91.0206    5.0436 C.3     1  UNL1        0.0196
     14 C          58.2251   91.0068    4.6030 C.3     1  UNL1        0.0196
     15 N          61.3451   89.7461   12.4554 N.pl3   1  UNL1       -0.2120
     16 H          60.5007   89.8969   12.9387 H       1  UNL1        0.1738
     17 S          62.6191   90.3528   12.9642 S.O2    1  UNL1        0.0745
     18 O          62.3486   89.7803   14.3240 O.2     1  UNL1       -0.1499
     19 O          62.8896   90.9252   11.6044 O.2     1  UNL1       -0.1499
     20 C          63.8931   90.9595   13.4730 C.ar    1  UNL1        0.1356
     21 C          64.7522   91.7788   12.5561 C.ar    1  UNL1        0.0207
     22 C          66.0261   92.3855   13.0648 C.ar    1  UNL1       -0.0028
     23 C          66.4411   92.1730   14.4905 C.ar    1  UNL1       -0.0216
     24 C          65.5820   91.3537   15.4074 C.ar    1  UNL1        0.0085
     25 C          64.3080   90.7470   14.8987 C.ar    1  UNL1        0.0762
     26 CL         63.4490   89.9277   15.8157 Cl      1  UNL1       -0.0809
     27 C          67.7151   92.7797   14.9993 C.3     1  UNL1        0.0224
     28 C          69.2133   92.7843   15.0721 C.3     1  UNL1        0.0047
     29 C          68.4234   93.8260   15.8076 C.3     1  UNL1        0.0047
     30 O          63.0432   87.2764   12.3244 O.3     1  UNL1       -0.4513
     31 C          63.1559   85.8313   12.7101 C.ar    1  UNL1        0.1580
     32 C          62.6235   84.7674   11.7964 C.ar    1  UNL1        0.0677
     33 C          62.7362   83.3222   12.1821 C.ar    1  UNL1        0.1396
     34 F          62.2038   82.2584   11.2684 F       1  UNL1       -0.2044
     35 C          63.3813   82.9409   13.4815 C.ar    1  UNL1        0.0119
     36 C          63.9137   84.0047   14.3952 C.ar    1  UNL1        0.0128
     37 C          63.8010   85.4498   14.0095 C.ar    1  UNL1        0.0919
     38 CL         64.3334   86.5137   14.9232 Cl      1  UNL1       -0.0791
     39 C          63.4940   81.4957   13.8672 C.3     1  UNL1        0.0703
     40 C          62.2794   80.6159   13.8425 C.2     1  UNL1        0.0548
     41 O          61.0167   81.0616   14.5184 O.co2   1  UNL1       -0.5488
     42 O          62.3276   79.2904   13.1420 O.co2   1  UNL1       -0.5488
@<TRIPOS>UNITY_ATOM_ATTR
41 1
charge -1
@<TRIPOS>BOND
     1    11    12    1
     2    12    13    1
     3    12    14    1
     4    12     7    1
     5     7     8   am
     6     8     9    2
     7     8     1    1
     8     1     2   ar
     9     2     3   ar
    10     3     4   ar
    11     4    30    1
    12    30    31    1
    13    31    32   ar
    14    32    33   ar
    15    33    34    1
    16    33    35   ar
    17    35    39    1
    18    39    40    1
    19    40    41   ar
    20    40    42   ar
    21    35    36   ar
    22    36    37   ar
    23    37    38    1
    24     4     5   ar
    25     5    15    1
    26    15    17    1
    27    17    18    2
    28    17    19    2
    29    17    20    1
    30    20    21   ar
    31    21    22   ar
    32    22    23   ar
    33    23    27    1
    34    27    28    1
    35    28    29    1
    36    23    24   ar
    37    24    25   ar
    38    25    26    1
    39     5     6   ar
    40     6     1   ar
    41    37    31   ar
    42    25    20   ar
    43    29    27    1
    44     7    10    1
    45    15    16    1
@<TRIPOS>MOLECULE
*****
 42 45 0 0 0
SMALL
GASTEIGER

@<TRIPOS>ATOM
      1 C          65.5758   92.5362   12.9071 C.ar    1  UNL1        0.0548
      2 C          66.2091   92.3124   14.2483 C.ar    1  UNL1        0.0077
      3 C          65.4934   91.5049   15.2903 C.ar    1  UNL1        0.0390
      4 C          64.1445   90.9211   14.9910 C.ar    1  UNL1        0.1598
      5 C          63.5113   91.1448   13.6498 C.ar    1  UNL1        0.0993
      6 C          64.2269   91.9524   12.6079 C.ar    1  UNL1        0.0235
      7 N          66.5036   92.7776   10.4924 N.am    1  UNL1       -0.3040
      8 C          66.2914   93.3438   11.8651 C.2     1  UNL1        0.2458
      9 O          66.7949   94.7174   12.1959 O.2     1  UNL1       -0.2701
     10 H          66.1731   91.8760   10.2753 H       1  UNL1        0.1496
     11 C          66.0912   94.5739    9.4419 C.3     1  UNL1        0.0196
     12 C          67.2192   93.5852    9.4504 C.3     1  UNL1        0.0572
     13 C          68.3473   92.5965    9.4589 C.3     1  UNL1        0.0196
     14 C          67.9349   94.3928    8.4085 C.3     1  UNL1        0.0196
     15 N          62.1623   90.5610   13.3505 N.pl3   1  UNL1       -0.2120
     16 H          61.3821   90.8218   13.8914 H       1  UNL1        0.1738
     17 S          62.0021   89.5799   12.2273 S.O2    1  UNL1        0.0745
     18 O          63.4291   89.8074   11.8251 O.2     1  UNL1       -0.1499
     19 O          60.5751   89.3524   12.6295 O.2     1  UNL1       -0.1499
     20 C          61.8419   88.5988   11.1040 C.ar    1  UNL1        0.1356
     21 C          62.4691   87.2396   11.2001 C.ar    1  UNL1        0.0207
     22 C          62.3089   86.2585   10.0769 C.ar    1  UNL1       -0.0028
     23 C          61.5215   86.6365    8.8575 C.ar    1  UNL1       -0.0216
     24 C          60.8942   87.9957    8.7613 C.ar    1  UNL1        0.0085
     25 C          61.0544   88.9768    9.8846 C.ar    1  UNL1        0.0762
     26 CL         60.4272   90.3360    9.7884 Cl      1  UNL1       -0.0809
     27 C          61.3612   85.6554    7.7342 C.3     1  UNL1        0.0224
     28 C          60.4768   84.8537    6.8258 C.3     1  UNL1        0.0047
     29 C          61.9682   84.7577    6.6970 C.3     1  UNL1        0.0047
     30 O          63.4289   90.1135   16.0330 O.3     1  UNL1       -0.4513
     31 C          63.5125   88.6160   16.0095 C.ar    1  UNL1        0.1580
     32 C          62.8052   87.8089   17.0575 C.ar    1  UNL1        0.0677
     33 C          62.8889   86.3113   17.0340 C.ar    1  UNL1        0.1396
     34 F          62.1815   85.5041   18.0819 F       1  UNL1       -0.2044
     35 C          63.6798   85.6211   15.9626 C.ar    1  UNL1        0.0119
     36 C          64.3871   86.4283   14.9147 C.ar    1  UNL1        0.0128
     37 C          64.3035   87.9257   14.9381 C.ar    1  UNL1        0.0919
     38 CL         65.0108   88.7329   13.8902 Cl      1  UNL1       -0.0791
     39 C          63.7634   84.1235   15.9391 C.3     1  UNL1        0.0703
     40 C          63.1665   83.3569   14.7964 C.2     1  UNL1        0.0548
     41 O          63.3544   81.8712   14.7105 O.co2   1  UNL1       -0.5488
     42 O          62.3815   84.0759   13.7396 O.co2   1  UNL1       -0.5488
@<TRIPOS>UNITY_ATOM_ATTR
41 1
charge -1
@<TRIPOS>BOND
     1    11    12    1
     2    12    13    1
     3    12    14    1
     4    12     7    1
     5     7     8   am
     6     8     9    2
     7     8     1    1
     8     1     2   ar
     9     2     3   ar
    10     3     4   ar
    11     4    30    1
    12    30    31    1
    13    31    32   ar
    14    32    33   ar
    15    33    34    1
    16    33    35   ar
    17    35    39    1
    18    39    40    1
    19    40    41   ar
    20    40    42   ar
    21    35    36   ar
    22    36    37   ar
    23    37    38    1
    24     4     5   ar
    25     5    15    1
    26    15    17    1
    27    17    18    2
    28    17    19    2
    29    17    20    1
    30    20    21   ar
    31    21    22   ar
    32    22    23   ar
    33    23    27    1
    34    27    28    1
    35    28    29    1
    36    23    24   ar
    37    24    25   ar
    38    25    26    1
    39     5     6   ar
    40     6     1   ar
    41    37    31   ar
    42    25    20   ar
    43    29    27    1
    44     7    10    1
    45    15    16    1
@<TRIPOS>MOLECULE
*****
 42 45 0 0 0
SMALL
GASTEIGER

@<TRIPOS>ATOM
      1 C          61.4380   86.1736    8.8759 C.ar    1  UNL1        0.0548
      2 C          60.5012   85.7855    7.7706 C.ar    1  UNL1        0.0077
      3 C          59.5649   86.8030    7.1891 C.ar    1  UNL1        0.0390
      4 C          59.5654   88.2085    7.7129 C.ar    1  UNL1        0.1598
      5 C          60.5022   88.5966    8.8182 C.ar    1  UNL1        0.0993
      6 C          61.4385   87.5792    9.3997 C.ar    1  UNL1        0.0235
      7 N          62.2171   84.7214   10.8844 N.am    1  UNL1       -0.3040
      8 C          62.3743   85.1562    9.4575 C.2     1  UNL1        0.2458
      9 O          63.4678   84.5736    8.6121 O.2     1  UNL1       -0.2701
     10 H          61.4993   85.1038   11.4393 H       1  UNL1        0.1496
     11 C          62.7026   82.7042   10.4425 C.3     1  UNL1        0.0196
     12 C          63.1533   83.7040   11.4660 C.3     1  UNL1        0.0572
     13 C          63.6040   84.7037   12.4894 C.3     1  UNL1        0.0196
     14 C          64.0896   82.6865   12.0475 C.3     1  UNL1        0.0196
     15 N          60.5028   90.0023    9.3420 N.pl3   1  UNL1       -0.2120
     16 H          59.7561   90.6074    9.1285 H       1  UNL1        0.1738
     17 S          61.6409   90.4858   10.1910 S.O2    1  UNL1        0.0745
     18 O          62.6119   89.7817    9.2903 O.2     1  UNL1       -0.1499
     19 O          60.6698   91.1899   11.0917 O.2     1  UNL1       -0.1499
     20 C          62.7790   90.9694   11.0400 C.ar    1  UNL1        0.1356
     21 C          63.7912   91.9174   10.4683 C.ar    1  UNL1        0.0207
     22 C          64.9293   92.4010   11.3173 C.ar    1  UNL1       -0.0028
     23 C          65.0552   91.9366   12.7380 C.ar    1  UNL1       -0.0216
     24 C          64.0430   90.9887   13.3097 C.ar    1  UNL1        0.0085
     25 C          62.9049   90.5051   12.4608 C.ar    1  UNL1        0.0762
     26 CL         61.8928   89.5571   13.0325 Cl      1  UNL1       -0.0809
     27 C          66.1934   92.4202   13.5871 C.3     1  UNL1        0.0224
     28 C          66.7521   93.4020   14.5740 C.3     1  UNL1        0.0047
     29 C          67.6059   92.2761   14.0707 C.3     1  UNL1        0.0047
     30 O          58.6292   89.2260    7.1313 O.3     1  UNL1       -0.4513
     31 C          59.1046   90.1518    6.0512 C.ar    1  UNL1        0.1580
     32 C          60.5670   90.2404    5.7293 C.ar    1  UNL1        0.0677
     33 C          61.0424   91.1664    4.6491 C.ar    1  UNL1        0.1396
     34 F          62.5048   91.2550    4.3272 F       1  UNL1       -0.2044
     35 C          60.0554   92.0036    3.8909 C.ar    1  UNL1        0.0119
     36 C          58.5931   91.9150    4.2128 C.ar    1  UNL1        0.0128
     37 C          58.1176   90.9891    5.2929 C.ar    1  UNL1        0.0919
     38 CL         56.6553   90.9005    5.6148 Cl      1  UNL1       -0.0791
     39 C          60.5309   92.9295    2.8107 C.3     1  UNL1        0.0703
     40 C          60.1870   92.6495    1.3778 C.2     1  UNL1        0.0548
     41 O          58.8657   93.0930    0.8231 O.co2   1  UNL1       -0.5488
     42 O          61.1643   91.9260    0.4996 O.co2   1  UNL1       -0.5488
@<TRIPOS>UNITY_ATOM_ATTR
41 1
charge -1
@<TRIPOS>BOND
     1    11    12    1
     2    12    13    1
     3    12    14    1
     4    12     7    1
     5     7     8   am
     6     8     9    2
     7     8     1    1
     8     1     2   ar
     9     2     3   ar
    10     3     4   ar
    11     4    30    1
    12    30    31    1
    13    31    32   ar
    14    32    33   ar
    15    33    34    1
    16    33    35   ar
    17    35    39    1
    18    39    40    1
    19    40    41   ar
    20    40    42   ar
    21    35    36   ar
    22    36    37   ar
    23    37    38    1
    24     4     5   ar
    25     5    15    1
    26    15    17    1
    27    17    18    2
    28    17    19    2
    29    17    20    1
    30    20    21   ar
    31    21    22   ar
    32    22    23   ar
    33    23    27    1
    34    27    28    1
    35    28    29    1
    36    23    24   ar
    37    24    25   ar
    38    25    26    1
    39     5     6   ar
    40     6     1   ar
    41    37    31   ar
    42    25    20   ar
    43    29    27    1
    44     7    10    1
    45    15    16    1
