@<TRIPOS>MOLECULE
*****
 33 37 0 0 0
SMALL
GASTEIGER

@<TRIPOS>ATOM
      1 O          63.4648   87.3887   13.0002 O.2     1  UNL1       -0.2698
      2 C          62.7880   86.6914   11.8575 C.2     1  UNL1        0.2507
      3 N          61.7759   87.4226   11.0263 N.am    1  UNL1       -0.2723
      4 C          61.0990   86.7254    9.8836 C.3     1  UNL1        0.1257
      5 C          60.0869   87.4566    9.0524 C.3     1  UNL1        0.1637
      6 O          59.7516   88.8851    9.3639 O.3     1  UNL1       -0.3502
      7 C          60.4285   89.5824   10.5065 C.3     1  UNL1        0.1622
      8 C          61.4406   88.8512   11.3378 C.3     1  UNL1        0.1097
      9 C          63.1233   85.2629   11.5461 C.ar    1  UNL1        0.0738
     10 C          63.2416   84.8141   10.1197 C.ar    1  UNL1        0.0061
     11 C          63.5769   83.3857    9.8082 C.ar    1  UNL1        0.0011
     12 C          63.7939   82.4060   10.9231 C.ar    1  UNL1        0.0130
     13 C          63.6756   82.8548   12.3495 C.ar    1  UNL1        0.0771
     14 CL         63.8926   81.8750   13.4644 Cl      1  UNL1       -0.0806
     15 C          63.3403   84.2832   12.6610 C.ar    1  UNL1        0.1177
     16 N          63.2220   84.7320   14.0874 N.ar    1  UNL1       -0.1468
     17 N          61.9787   84.6880   14.9253 N.ar    1  UNL1       -0.1447
     18 C          62.3145   85.2323   16.2821 C.ar    1  UNL1        0.1446
     19 C          63.7654   85.6128   16.2827 C.ar    1  UNL1        0.1446
     20 N          64.3263   85.3036   14.9263 N.ar    1  UNL1       -0.1447
     21 C          62.1174   89.5484   12.4804 C.3     1  UNL1        0.0510
     22 C          63.2169   90.5330   12.2129 C.ar    1  UNL1        0.0071
     23 C          64.0778   91.0205   13.3403 C.ar    1  UNL1        0.0012
     24 C          65.1774   92.0052   13.0728 C.ar    1  UNL1        0.0389
     25 C          65.4160   92.5023   11.6778 C.ar    1  UNL1        0.0054
     26 C          64.5550   92.0148   10.5504 C.ar    1  UNL1        0.0294
     27 C          63.4555   91.0302   10.8179 C.ar    1  UNL1        0.1362
     28 F          62.5946   90.5427    9.6905 F       1  UNL1       -0.2045
     29 C          66.0383   92.4927   14.2002 C.ar    1  UNL1        0.2037
     30 N          67.4265   93.0465   14.0737 N.ar    1  UNL1       -0.1829
     31 C          67.9083   93.4081   15.4474 C.ar    1  UNL1        0.3164
     32 O          66.8179   93.0777   16.4230 O.2     1  UNL1       -0.3274
     33 N          65.6621   92.5120   15.6522 N.ar    1  UNL1       -0.0554
@<TRIPOS>BOND
     1     1     2    2
     2     2     9    1
     3     9    10   ar
     4    10    11   ar
     5    11    12   ar
     6    12    13   ar
     7    13    14    1
     8    13    15   ar
     9    15    16    1
    10    16    17   ar
    11    17    18   ar
    12    18    19   ar
    13    19    20   ar
    14     2     3   am
    15     3     4    1
    16     4     5    1
    17     5     6    1
    18     6     7    1
    19     7     8    1
    20     8    21    1
    21    21    22    1
    22    22    23   ar
    23    23    24   ar
    24    24    29    1
    25    29    30   ar
    26    30    31   ar
    27    31    32   ar
    28    32    33   ar
    29    24    25   ar
    30    25    26   ar
    31    26    27   ar
    32    27    28    1
    33    15     9   ar
    34    20    16   ar
    35     8     3    1
    36    27    22   ar
    37    33    29   ar
@<TRIPOS>MOLECULE
*****
 33 37 0 0 0
SMALL
GASTEIGER

@<TRIPOS>ATOM
      1 O          63.4761   87.4343   13.3243 O.2     1  UNL1       -0.2698
      2 C          62.8852   87.1143   11.9833 C.2     1  UNL1        0.2507
      3 N          62.1242   88.1641   11.2292 N.am    1  UNL1       -0.2723
      4 C          61.5333   87.8441    9.8881 C.3     1  UNL1        0.1257
      5 C          60.7722   88.8940    9.1340 C.3     1  UNL1        0.1637
      6 O          60.6021   90.2639    9.7210 O.3     1  UNL1       -0.3502
      7 C          61.1930   90.5839   11.0621 C.3     1  UNL1        0.1622
      8 C          61.9540   89.5340   11.8162 C.3     1  UNL1        0.1097
      9 C          63.0554   85.7444   11.3963 C.ar    1  UNL1        0.0738
     10 C          63.0629   85.5621    9.9074 C.ar    1  UNL1        0.0061
     11 C          63.2330   84.1923    9.3204 C.ar    1  UNL1        0.0011
     12 C          63.3957   83.0048   10.2223 C.ar    1  UNL1        0.0130
     13 C          63.3883   83.1871   11.7111 C.ar    1  UNL1        0.0771
     14 CL         63.5510   81.9996   12.6130 Cl      1  UNL1       -0.0806
     15 C          63.2181   84.5569   12.2981 C.ar    1  UNL1        0.1177
     16 N          63.2106   84.7393   13.7870 N.ar    1  UNL1       -0.1468
     17 N          64.4075   85.0179   14.6472 N.ar    1  UNL1       -0.1447
     18 C          63.9416   85.1258   16.0689 C.ar    1  UNL1        0.1446
     19 C          62.4567   84.9139   16.0874 C.ar    1  UNL1        0.1446
     20 N          62.0050   84.6750   14.6771 N.ar    1  UNL1       -0.1447
     21 C          62.5449   89.8540   13.1572 C.3     1  UNL1        0.0510
     22 C          63.8541   90.5806   13.2459 C.ar    1  UNL1        0.0071
     23 C          64.3102   91.4458   12.1087 C.ar    1  UNL1        0.0012
     24 C          65.6195   92.1724   12.1973 C.ar    1  UNL1        0.0389
     25 C          66.4727   92.0338   13.4232 C.ar    1  UNL1        0.0054
     26 C          66.0166   91.1685   14.5604 C.ar    1  UNL1        0.0294
     27 C          64.7073   90.4419   14.4718 C.ar    1  UNL1        0.1362
     28 F          64.2513   89.5767   15.6090 F       1  UNL1       -0.2045
     29 C          66.0756   93.0377   11.0600 C.ar    1  UNL1        0.2037
     30 N          67.1661   92.7086   10.0841 N.ar    1  UNL1       -0.1829
     31 C          67.2857   93.8514    9.1199 C.ar    1  UNL1        0.3164
     32 O          66.2690   94.8868    9.5000 O.2     1  UNL1       -0.3274
     33 N          65.5212   94.3839   10.6990 N.ar    1  UNL1       -0.0554
@<TRIPOS>BOND
     1     1     2    2
     2     2     9    1
     3     9    10   ar
     4    10    11   ar
     5    11    12   ar
     6    12    13   ar
     7    13    14    1
     8    13    15   ar
     9    15    16    1
    10    16    17   ar
    11    17    18   ar
    12    18    19   ar
    13    19    20   ar
    14     2     3   am
    15     3     4    1
    16     4     5    1
    17     5     6    1
    18     6     7    1
    19     7     8    1
    20     8    21    1
    21    21    22    1
    22    22    23   ar
    23    23    24   ar
    24    24    29    1
    25    29    30   ar
    26    30    31   ar
    27    31    32   ar
    28    32    33   ar
    29    24    25   ar
    30    25    26   ar
    31    26    27   ar
    32    27    28    1
    33    15     9   ar
    34    20    16   ar
    35     8     3    1
    36    27    22   ar
    37    33    29   ar
@<TRIPOS>MOLECULE
*****
 33 37 0 0 0
SMALL
GASTEIGER

@<TRIPOS>ATOM
      1 O          63.5518   91.2706   12.1353 O.2     1  UNL1       -0.2698
      2 C          64.0745   90.5607   13.3489 C.2     1  UNL1        0.2507
      3 N          63.9346   89.0718   13.4652 N.am    1  UNL1       -0.2723
      4 C          64.4572   88.3619   14.6788 C.3     1  UNL1        0.1257
      5 C          64.3173   86.8729   14.7951 C.3     1  UNL1        0.1637
      6 O          63.6548   86.0939   13.6978 O.3     1  UNL1       -0.3502
      7 C          63.1321   86.8038   12.4841 C.3     1  UNL1        0.1622
      8 C          63.2720   88.2927   12.3678 C.3     1  UNL1        0.1097
      9 C          64.7370   91.3398   14.4463 C.ar    1  UNL1        0.0738
     10 C          64.2113   91.2557   15.8486 C.ar    1  UNL1        0.0061
     11 C          64.8738   92.0347   16.9459 C.ar    1  UNL1        0.0011
     12 C          66.0620   92.8978   16.6410 C.ar    1  UNL1        0.0130
     13 C          66.5877   92.9819   15.2386 C.ar    1  UNL1        0.0771
     14 CL         67.7761   93.8451   14.9337 Cl      1  UNL1       -0.0806
     15 C          65.9253   92.2029   14.1413 C.ar    1  UNL1        0.1177
     16 N          66.4510   92.2870   12.7390 N.ar    1  UNL1       -0.1468
     17 N          65.7576   92.9296   11.5744 N.ar    1  UNL1       -0.1447
     18 C          66.6405   92.7831   10.3707 C.ar    1  UNL1        0.1446
     19 C          67.8797   92.0499   10.7913 C.ar    1  UNL1        0.1446
     20 N          67.7625   91.7433   12.2550 N.ar    1  UNL1       -0.1447
     21 C          62.7494   89.0026   11.1542 C.3     1  UNL1        0.0510
     22 C          61.6635   88.3778   10.3294 C.ar    1  UNL1        0.0071
     23 C          62.0026   87.3232    9.3181 C.ar    1  UNL1        0.0012
     24 C          60.9166   86.6984    8.4932 C.ar    1  UNL1        0.0389
     25 C          59.4917   87.1281    8.6797 C.ar    1  UNL1        0.0054
     26 C          59.1526   88.1828    9.6911 C.ar    1  UNL1        0.0294
     27 C          60.2385   88.8076   10.5159 C.ar    1  UNL1        0.1362
     28 F          59.8995   89.8622   11.5272 F       1  UNL1       -0.2045
     29 C          61.2557   85.6438    7.4818 C.ar    1  UNL1        0.2037
     30 N          62.6322   85.1445    7.1563 N.ar    1  UNL1       -0.1829
     31 C          62.5051   84.0954    6.0918 C.ar    1  UNL1        0.3164
     32 O          61.0499   83.9464    5.7593 O.2     1  UNL1       -0.3274
     33 N          60.2778   84.9033    6.6184 N.ar    1  UNL1       -0.0554
@<TRIPOS>BOND
     1     1     2    2
     2     2     9    1
     3     9    10   ar
     4    10    11   ar
     5    11    12   ar
     6    12    13   ar
     7    13    14    1
     8    13    15   ar
     9    15    16    1
    10    16    17   ar
    11    17    18   ar
    12    18    19   ar
    13    19    20   ar
    14     2     3   am
    15     3     4    1
    16     4     5    1
    17     5     6    1
    18     6     7    1
    19     7     8    1
    20     8    21    1
    21    21    22    1
    22    22    23   ar
    23    23    24   ar
    24    24    29    1
    25    29    30   ar
    26    30    31   ar
    27    31    32   ar
    28    32    33   ar
    29    24    25   ar
    30    25    26   ar
    31    26    27   ar
    32    27    28    1
    33    15     9   ar
    34    20    16   ar
    35     8     3    1
    36    27    22   ar
    37    33    29   ar
@<TRIPOS>MOLECULE
*****
 33 37 0 0 0
SMALL
GASTEIGER

@<TRIPOS>ATOM
      1 O          62.9508   87.7752   12.5886 O.2     1  UNL1       -0.2698
      2 C          62.7309   88.9113   11.6341 C.2     1  UNL1        0.2507
      3 N          61.6924   88.7964   10.5580 N.am    1  UNL1       -0.2723
      4 C          61.4725   89.9324    9.6035 C.3     1  UNL1        0.1257
      5 C          60.4338   89.8175    8.5273 C.3     1  UNL1        0.1637
      6 O          59.6152   88.5665    8.4056 O.3     1  UNL1       -0.3502
      7 C          59.8351   87.4305    9.3601 C.3     1  UNL1        0.1622
      8 C          60.8736   87.5454   10.4363 C.3     1  UNL1        0.1097
      9 C          63.5496   90.1623   11.7559 C.ar    1  UNL1        0.0738
     10 C          63.8213   91.0018   10.5429 C.ar    1  UNL1        0.0061
     11 C          64.6400   92.2527   10.6645 C.ar    1  UNL1        0.0011
     12 C          65.1870   92.6641   11.9992 C.ar    1  UNL1        0.0130
     13 C          64.9154   91.8246   13.2122 C.ar    1  UNL1        0.0771
     14 CL         65.4625   92.2361   14.5470 Cl      1  UNL1       -0.0806
     15 C          64.0967   90.5737   13.0906 C.ar    1  UNL1        0.1177
     16 N          63.8251   89.7341   14.3036 N.ar    1  UNL1       -0.1468
     17 N          64.5296   88.4619   14.6711 N.ar    1  UNL1       -0.1447
     18 C          63.9412   87.9609   15.9567 C.ar    1  UNL1        0.1446
     19 C          62.8730   88.9234   16.3837 C.ar    1  UNL1        0.1446
     20 N          62.8012   90.0193   15.3620 N.ar    1  UNL1       -0.1447
     21 C          61.0935   86.4093   11.3907 C.3     1  UNL1        0.0510
     22 C          62.0032   85.2780   11.0133 C.ar    1  UNL1        0.0071
     23 C          62.1487   84.0963   11.9256 C.ar    1  UNL1        0.0012
     24 C          63.0585   82.9649   11.5481 C.ar    1  UNL1        0.0389
     25 C          63.8227   83.0153   10.2584 C.ar    1  UNL1        0.0054
     26 C          63.6772   84.1971    9.3461 C.ar    1  UNL1        0.0294
     27 C          62.7675   85.3284    9.7236 C.ar    1  UNL1        0.1362
     28 F          62.6220   86.5102    8.8113 F       1  UNL1       -0.2045
     29 C          63.2040   81.7832   12.4604 C.ar    1  UNL1        0.2037
     30 N          62.5046   80.4644   12.3132 N.ar    1  UNL1       -0.1829
     31 C          62.9427   79.5788   13.4419 C.ar    1  UNL1        0.3164
     32 O          63.9129   80.3504   14.2867 O.2     1  UNL1       -0.3274
     33 N          64.0743   81.7127   13.6801 N.ar    1  UNL1       -0.0554
@<TRIPOS>BOND
     1     1     2    2
     2     2     9    1
     3     9    10   ar
     4    10    11   ar
     5    11    12   ar
     6    12    13   ar
     7    13    14    1
     8    13    15   ar
     9    15    16    1
    10    16    17   ar
    11    17    18   ar
    12    18    19   ar
    13    19    20   ar
    14     2     3   am
    15     3     4    1
    16     4     5    1
    17     5     6    1
    18     6     7    1
    19     7     8    1
    20     8    21    1
    21    21    22    1
    22    22    23   ar
    23    23    24   ar
    24    24    29    1
    25    29    30   ar
    26    30    31   ar
    27    31    32   ar
    28    32    33   ar
    29    24    25   ar
    30    25    26   ar
    31    26    27   ar
    32    27    28    1
    33    15     9   ar
    34    20    16   ar
    35     8     3    1
    36    27    22   ar
    37    33    29   ar
@<TRIPOS>MOLECULE
*****
 33 37 0 0 0
SMALL
GASTEIGER

@<TRIPOS>ATOM
      1 O          63.5165   88.0057   11.9573 O.2     1  UNL1       -0.2698
      2 C          63.5253   87.4086   13.3333 C.2     1  UNL1        0.2507
      3 N          63.3965   88.2950   14.5364 N.am    1  UNL1       -0.2723
      4 C          63.4053   87.6979   15.9124 C.3     1  UNL1        0.1257
      5 C          63.2765   88.5844   17.1156 C.3     1  UNL1        0.1637
      6 O          63.1388   90.0680   16.9427 O.3     1  UNL1       -0.3502
      7 C          63.1299   90.6651   15.5668 C.3     1  UNL1        0.1622
      8 C          63.2588   89.7787   14.3636 C.3     1  UNL1        0.1097
      9 C          63.6630   85.9249   13.5061 C.ar    1  UNL1        0.0738
     10 C          64.4056   85.3731   14.6868 C.ar    1  UNL1        0.0061
     11 C          64.5433   83.8895   14.8597 C.ar    1  UNL1        0.0011
     12 C          63.9384   82.9577   13.8518 C.ar    1  UNL1        0.0130
     13 C          63.1958   83.5095   12.6711 C.ar    1  UNL1        0.0771
     14 CL         62.5909   82.5776   11.6632 Cl      1  UNL1       -0.0806
     15 C          63.0581   84.9931   12.4983 C.ar    1  UNL1        0.1177
     16 N          62.3156   85.5449   11.3175 N.ar    1  UNL1       -0.1468
     17 N          61.0399   86.3325   11.3677 N.ar    1  UNL1       -0.1447
     18 C          60.6542   86.6804    9.9605 C.ar    1  UNL1        0.1446
     19 C          61.6915   86.1078    9.0406 C.ar    1  UNL1        0.1446
     20 N          62.7182   85.4060    9.8793 N.ar    1  UNL1       -0.1447
     21 C          63.2500   90.3759   12.9876 C.3     1  UNL1        0.0510
     22 C          64.3555   91.2960   12.5623 C.ar    1  UNL1        0.0071
     23 C          65.4569   91.6385   13.5212 C.ar    1  UNL1        0.0012
     24 C          66.5626   92.5587   13.0959 C.ar    1  UNL1        0.0389
     25 C          66.5668   93.1363   11.7116 C.ar    1  UNL1        0.0054
     26 C          65.4654   92.7937   10.7526 C.ar    1  UNL1        0.0294
     27 C          64.3598   91.8736   11.1780 C.ar    1  UNL1        0.1362
     28 F          63.2584   91.5311   10.2190 F       1  UNL1       -0.2045
     29 C          67.6639   92.9012   14.0548 C.ar    1  UNL1        0.2037
     30 N          67.5439   93.7974   15.2517 N.ar    1  UNL1       -0.1829
     31 C          68.8845   93.8577   15.9219 C.ar    1  UNL1        0.3164
     32 O          69.8331   92.9988   15.1392 O.2     1  UNL1       -0.3274
     33 N          69.0787   92.4077   13.9853 N.ar    1  UNL1       -0.0554
@<TRIPOS>BOND
     1     1     2    2
     2     2     9    1
     3     9    10   ar
     4    10    11   ar
     5    11    12   ar
     6    12    13   ar
     7    13    14    1
     8    13    15   ar
     9    15    16    1
    10    16    17   ar
    11    17    18   ar
    12    18    19   ar
    13    19    20   ar
    14     2     3   am
    15     3     4    1
    16     4     5    1
    17     5     6    1
    18     6     7    1
    19     7     8    1
    20     8    21    1
    21    21    22    1
    22    22    23   ar
    23    23    24   ar
    24    24    29    1
    25    29    30   ar
    26    30    31   ar
    27    31    32   ar
    28    32    33   ar
    29    24    25   ar
    30    25    26   ar
    31    26    27   ar
    32    27    28    1
    33    15     9   ar
    34    20    16   ar
    35     8     3    1
    36    27    22   ar
    37    33    29   ar
@<TRIPOS>MOLECULE
*****
 33 37 0 0 0
SMALL
GASTEIGER

@<TRIPOS>ATOM
      1 O          63.6331   88.1536   12.6938 O.2     1  UNL1       -0.2698
      2 C          63.6174   87.0518   13.7116 C.2     1  UNL1        0.2507
      3 N          63.4274   87.3750   15.1639 N.am    1  UNL1       -0.2723
      4 C          63.4118   86.2732   16.1817 C.3     1  UNL1        0.1257
      5 C          63.2217   86.5965   17.6341 C.3     1  UNL1        0.1637
      6 O          63.0473   88.0215   18.0687 O.3     1  UNL1       -0.3502
      7 C          63.0630   89.1233   17.0510 C.3     1  UNL1        0.1622
      8 C          63.2530   88.8001   15.5986 C.3     1  UNL1        0.1097
      9 C          63.7918   85.6268   13.2769 C.ar    1  UNL1        0.0738
     10 C          64.6480   84.6960   14.0836 C.ar    1  UNL1        0.0061
     11 C          64.8224   83.2710   13.6490 C.ar    1  UNL1        0.0011
     12 C          64.1407   82.7768   12.4077 C.ar    1  UNL1        0.0130
     13 C          63.2845   83.7075   11.6010 C.ar    1  UNL1        0.0771
     14 CL         62.6028   83.2132   10.3596 Cl      1  UNL1       -0.0806
     15 C          63.1101   85.1325   12.0356 C.ar    1  UNL1        0.1177
     16 N          62.2540   86.0632   11.2289 N.ar    1  UNL1       -0.1468
     17 N          62.5421   86.5429    9.8372 N.ar    1  UNL1       -0.1447
     18 C          61.4256   87.4539    9.4204 C.ar    1  UNL1        0.1446
     19 C          60.4474   87.5371   10.5545 C.ar    1  UNL1        0.1446
     20 N          60.9594   86.6777   11.6722 N.ar    1  UNL1       -0.1447
     21 C          63.2686   89.9019   14.5809 C.3     1  UNL1        0.0510
     22 C          64.4055   90.8800   14.5519 C.ar    1  UNL1        0.0071
     23 C          65.1533   91.1230   13.2745 C.ar    1  UNL1        0.0012
     24 C          66.2902   92.1012   13.2454 C.ar    1  UNL1        0.0389
     25 C          66.6791   92.8363   14.4938 C.ar    1  UNL1        0.0054
     26 C          65.9312   92.5932   15.7712 C.ar    1  UNL1        0.0294
     27 C          64.7944   91.6151   15.8002 C.ar    1  UNL1        0.1362
     28 F          64.0466   91.3721   17.0775 F       1  UNL1       -0.2045
     29 C          67.0380   92.3442   11.9681 C.ar    1  UNL1        0.2037
     30 N          66.4943   93.0165   10.7424 N.ar    1  UNL1       -0.1829
     31 C          67.5810   93.0454    9.7089 C.ar    1  UNL1        0.3164
     32 O          68.7965   92.3910   10.2959 O.2     1  UNL1       -0.3274
     33 N          68.4608   91.9577   11.6922 N.ar    1  UNL1       -0.0554
@<TRIPOS>BOND
     1     1     2    2
     2     2     9    1
     3     9    10   ar
     4    10    11   ar
     5    11    12   ar
     6    12    13   ar
     7    13    14    1
     8    13    15   ar
     9    15    16    1
    10    16    17   ar
    11    17    18   ar
    12    18    19   ar
    13    19    20   ar
    14     2     3   am
    15     3     4    1
    16     4     5    1
    17     5     6    1
    18     6     7    1
    19     7     8    1
    20     8    21    1
    21    21    22    1
    22    22    23   ar
    23    23    24   ar
    24    24    29    1
    25    29    30   ar
    26    30    31   ar
    27    31    32   ar
    28    32    33   ar
    29    24    25   ar
    30    25    26   ar
    31    26    27   ar
    32    27    28    1
    33    15     9   ar
    34    20    16   ar
    35     8     3    1
    36    27    22   ar
    37    33    29   ar
@<TRIPOS>MOLECULE
*****
 33 37 0 0 0
SMALL
GASTEIGER

@<TRIPOS>ATOM
      1 O          63.8817   88.4693   12.1281 O.2     1  UNL1       -0.2698
      2 C          63.7214   87.7928   13.4573 C.2     1  UNL1        0.2507
      3 N          63.5281   88.6133   14.6980 N.am    1  UNL1       -0.2723
      4 C          63.3678   87.9368   16.0272 C.3     1  UNL1        0.1257
      5 C          63.1746   88.7574   17.2679 C.3     1  UNL1        0.1637
      6 O          63.1417   90.2544   17.1794 O.3     1  UNL1       -0.3502
      7 C          63.3020   90.9309   15.8503 C.3     1  UNL1        0.1622
      8 C          63.4952   90.1104   14.6096 C.3     1  UNL1        0.1097
      9 C          63.7543   86.2957   13.5457 C.ar    1  UNL1        0.0738
     10 C          64.5452   85.6257   14.6300 C.ar    1  UNL1        0.0061
     11 C          64.5781   84.1287   14.7184 C.ar    1  UNL1        0.0011
     12 C          63.8202   83.3017   13.7226 C.ar    1  UNL1        0.0130
     13 C          63.0293   83.9717   12.6384 C.ar    1  UNL1        0.0771
     14 CL         62.2714   83.1447   11.6426 Cl      1  UNL1       -0.0806
     15 C          62.9964   85.4687   12.5499 C.ar    1  UNL1        0.1177
     16 N          62.2055   86.1388   11.4657 N.ar    1  UNL1       -0.1468
     17 N          62.5282   86.1232   10.0009 N.ar    1  UNL1       -0.1447
     18 C          61.4752   86.9168    9.2858 C.ar    1  UNL1        0.1446
     19 C          60.5017   87.4229   10.3086 C.ar    1  UNL1        0.1446
     20 N          60.9530   86.9420   11.6559 N.ar    1  UNL1       -0.1447
     21 C          63.6555   90.7869   13.2804 C.3     1  UNL1        0.0510
     22 C          64.9097   91.5504   12.9739 C.ar    1  UNL1        0.0071
     23 C          64.9222   92.5566   11.8616 C.ar    1  UNL1        0.0012
     24 C          66.1765   93.3202   11.5550 C.ar    1  UNL1        0.0389
     25 C          67.4181   93.0775   12.3608 C.ar    1  UNL1        0.0054
     26 C          67.4056   92.0712   13.4731 C.ar    1  UNL1        0.0294
     27 C          66.1514   91.3077   13.7797 C.ar    1  UNL1        0.1362
     28 F          66.1389   90.3014   14.8920 F       1  UNL1       -0.2045
     29 C          66.1889   94.3264   10.4427 C.ar    1  UNL1        0.2037
     30 N          67.0133   94.2479    9.1920 N.ar    1  UNL1       -0.1829
     31 C          66.7131   95.4608    8.3621 C.ar    1  UNL1        0.3164
     32 O          65.7032   96.2890    9.0999 O.2     1  UNL1       -0.3274
     33 N          65.3793   95.5879   10.3858 N.ar    1  UNL1       -0.0554
@<TRIPOS>BOND
     1     1     2    2
     2     2     9    1
     3     9    10   ar
     4    10    11   ar
     5    11    12   ar
     6    12    13   ar
     7    13    14    1
     8    13    15   ar
     9    15    16    1
    10    16    17   ar
    11    17    18   ar
    12    18    19   ar
    13    19    20   ar
    14     2     3   am
    15     3     4    1
    16     4     5    1
    17     5     6    1
    18     6     7    1
    19     7     8    1
    20     8    21    1
    21    21    22    1
    22    22    23   ar
    23    23    24   ar
    24    24    29    1
    25    29    30   ar
    26    30    31   ar
    27    31    32   ar
    28    32    33   ar
    29    24    25   ar
    30    25    26   ar
    31    26    27   ar
    32    27    28    1
    33    15     9   ar
    34    20    16   ar
    35     8     3    1
    36    27    22   ar
    37    33    29   ar
@<TRIPOS>MOLECULE
*****
 33 37 0 0 0
SMALL
GASTEIGER

@<TRIPOS>ATOM
      1 O          61.5583   93.1275   -1.6683 O.2     1  UNL1       -0.2698
      2 C          62.7712   93.8060   -2.2328 C.2     1  UNL1        0.2507
      3 N          63.5110   94.8224   -1.4146 N.am    1  UNL1       -0.2723
      4 C          64.7238   95.5009   -1.9791 C.3     1  UNL1        0.1257
      5 C          65.4636   96.5174   -1.1608 C.3     1  UNL1        0.1637
      6 O          64.9905   96.8554    0.2219 O.3     1  UNL1       -0.3502
      7 C          63.7777   96.1769    0.7864 C.3     1  UNL1        0.1622
      8 C          63.0379   95.1604   -0.0318 C.3     1  UNL1        0.1097
      9 C          63.2442   93.4679   -3.6156 C.ar    1  UNL1        0.0738
     10 C          64.4379   92.5792   -3.8036 C.ar    1  UNL1        0.0061
     11 C          64.9109   92.2412   -5.1863 C.ar    1  UNL1        0.0011
     12 C          64.1904   92.7919   -6.3810 C.ar    1  UNL1        0.0130
     13 C          62.9967   93.6806   -6.1930 C.ar    1  UNL1        0.0771
     14 CL         62.2761   94.2313   -7.3878 Cl      1  UNL1       -0.0806
     15 C          62.5236   94.0187   -4.8103 C.ar    1  UNL1        0.1177
     16 N          61.3300   94.9074   -4.6224 N.ar    1  UNL1       -0.1468
     17 N          59.8943   94.4983   -4.7690 N.ar    1  UNL1       -0.1447
     18 C          59.0395   95.6994   -4.4920 C.ar    1  UNL1        0.1446
     19 C          59.9468   96.8508   -4.1742 C.ar    1  UNL1        0.1446
     20 N          61.3624   96.3613   -4.2547 N.ar    1  UNL1       -0.1447
     21 C          61.8251   94.4820    0.5327 C.3     1  UNL1        0.0510
     22 C          61.9795   93.4189    1.5796 C.ar    1  UNL1        0.0071
     23 C          60.8158   93.0502    2.4513 C.ar    1  UNL1        0.0012
     24 C          60.9701   91.9871    3.4983 C.ar    1  UNL1        0.0389
     25 C          62.2882   91.2928    3.6735 C.ar    1  UNL1        0.0054
     26 C          63.4519   91.6616    2.8018 C.ar    1  UNL1        0.0294
     27 C          63.2975   92.7246    1.7548 C.ar    1  UNL1        0.1362
     28 F          64.4612   93.0934    0.8832 F       1  UNL1       -0.2045
     29 C          59.8065   91.6184    4.3700 C.ar    1  UNL1        0.2037
     30 N          59.7929   90.5405    5.4130 N.ar    1  UNL1       -0.1829
     31 C          58.4301   90.5187    6.0394 C.ar    1  UNL1        0.3164
     32 O          57.6014   91.5832    5.3834 O.2     1  UNL1       -0.3274
     33 N          58.4520   92.2627    4.3516 N.ar    1  UNL1       -0.0554
@<TRIPOS>BOND
     1     1     2    2
     2     2     9    1
     3     9    10   ar
     4    10    11   ar
     5    11    12   ar
     6    12    13   ar
     7    13    14    1
     8    13    15   ar
     9    15    16    1
    10    16    17   ar
    11    17    18   ar
    12    18    19   ar
    13    19    20   ar
    14     2     3   am
    15     3     4    1
    16     4     5    1
    17     5     6    1
    18     6     7    1
    19     7     8    1
    20     8    21    1
    21    21    22    1
    22    22    23   ar
    23    23    24   ar
    24    24    29    1
    25    29    30   ar
    26    30    31   ar
    27    31    32   ar
    28    32    33   ar
    29    24    25   ar
    30    25    26   ar
    31    26    27   ar
    32    27    28    1
    33    15     9   ar
    34    20    16   ar
    35     8     3    1
    36    27    22   ar
    37    33    29   ar
