@<TRIPOS>MOLECULE
*****
 40 43 0 0 0
SMALL
GASTEIGER

@<TRIPOS>ATOM
      1 C          63.1815   83.2624   12.0514 C.ar    1  UNL1        0.1432
      2 C          63.8475   83.9983   13.1760 C.ar    1  UNL1        0.0691
      3 C          63.5497   83.6239   14.5977 C.ar    1  UNL1        0.1368
      4 N          62.5860   82.5136   14.8947 N.ar    1  UNL1       -0.2088
      5 C          61.9199   81.7777   13.7701 C.ar    1  UNL1        0.2012
      6 N          62.2177   82.1521   12.3484 N.ar    1  UNL1       -0.2085
      7 N          62.1853   85.8674   10.9461 N.am    1  UNL1       -0.2663
      8 C          62.9812   84.9394   10.0771 C.2     1  UNL1        0.3126
      9 O          63.2789   85.3138    8.6554 O.2     1  UNL1       -0.2519
     10 N          63.4793   83.6368   10.6297 N.am    1  UNL1       -0.2261
     11 C          64.2752   82.7088    9.7607 C.3     1  UNL1        0.1231
     12 H          61.9898   85.6217   11.8792 H       1  UNL1        0.1565
     13 C          61.7030   89.7680   10.3954 C.ar    1  UNL1        0.1535
     14 C          60.6910   89.7749    9.2883 C.ar    1  UNL1        0.0756
     15 C          60.1770   88.4794    8.7338 C.ar    1  UNL1        0.1535
     16 C          60.6751   87.1769    9.2864 C.ar    1  UNL1        0.1060
     17 CL         60.1611   85.8814    8.7319 Cl      1  UNL1       -0.0777
     18 C          61.6871   87.1700   10.3935 C.ar    1  UNL1        0.0788
     19 C          62.2011   88.4655   10.9480 C.ar    1  UNL1        0.1060
     20 CL         63.2132   88.4585   12.0551 Cl      1  UNL1       -0.0777
     21 C          63.5418   91.6007   10.4958 C.3     1  UNL1        0.2525
     22 O          62.2170   91.0635   10.9499 O.3     1  UNL1       -0.4704
     23 O          59.1649   88.4865    7.6267 O.3     1  UNL1       -0.4704
     24 C          59.2869   89.4752    6.5053 C.3     1  UNL1        0.2525
     25 N          64.2157   84.3598   15.7223 N.pl3   1  UNL1       -0.2978
     26 H          64.8397   83.8866   16.3189 H       1  UNL1        0.1536
     27 C          63.9311   85.8168   15.9379 C.ar    1  UNL1        0.0496
     28 C          64.4799   86.8372   14.9853 C.ar    1  UNL1        0.0178
     29 C          64.1953   88.2940   15.2008 C.ar    1  UNL1        0.0382
     30 C          63.3618   88.7305   16.3690 C.ar    1  UNL1        0.1387
     31 C          62.8129   87.7101   17.3216 C.ar    1  UNL1        0.0382
     32 C          63.0976   86.2532   17.1061 C.ar    1  UNL1        0.0178
     33 O          63.0771   90.1874   16.5846 O.3     1  UNL1       -0.4740
     34 C          63.7760   91.2196   15.7503 C.3     1  UNL1        0.2226
     35 C          64.8911   92.0311   16.3401 C.3     1  UNL1        0.1200
     36 N          66.1979   92.1500   15.6133 N.3     1  UNL1       -0.2696
     37 C          67.4255   92.8507   16.1154 C.3     1  UNL1        0.0722
     38 C          68.4928   92.7228   15.0693 C.3     1  UNL1        0.0188
     39 C          67.9249   91.9431   13.9206 C.3     1  UNL1        0.0188
     40 C          66.5066   91.5891   14.2569 C.3     1  UNL1        0.0722
@<TRIPOS>BOND
     1    21    22    1
     2    22    13    1
     3    13    14   ar
     4    14    15   ar
     5    15    23    1
     6    23    24    1
     7    15    16   ar
     8    16    17    1
     9    16    18   ar
    10    18     7    1
    11     7     8   am
    12     8     9    2
    13     8    10   am
    14    10    11    1
    15    10     1    1
    16     1     2   ar
    17     2     3   ar
    18     3    25    1
    19    25    27    1
    20    27    28   ar
    21    28    29   ar
    22    29    30   ar
    23    30    33    1
    24    33    34    1
    25    34    35    1
    26    35    36    1
    27    36    37    1
    28    37    38    1
    29    38    39    1
    30    39    40    1
    31    30    31   ar
    32    31    32   ar
    33     3     4   ar
    34     4     5   ar
    35     5     6   ar
    36    18    19   ar
    37    19    20    1
    38    19    13   ar
    39     6     1   ar
    40    32    27   ar
    41    40    36    1
    42     7    12    1
    43    25    26    1
@<TRIPOS>MOLECULE
*****
 40 43 0 0 0
SMALL
GASTEIGER

@<TRIPOS>ATOM
      1 C          63.1913   83.2815   12.0928 C.ar    1  UNL1        0.1432
      2 C          63.8612   84.0288   13.2075 C.ar    1  UNL1        0.0691
      3 C          63.5624   83.6743   14.6341 C.ar    1  UNL1        0.1368
      4 N          62.5936   82.5724   14.9458 N.ar    1  UNL1       -0.2088
      5 C          61.9236   81.8250   13.8311 C.ar    1  UNL1        0.2012
      6 N          62.2225   82.1796   12.4046 N.ar    1  UNL1       -0.2085
      7 N          62.1959   85.8709   10.9506 N.am    1  UNL1       -0.2663
      8 C          62.9925   84.9308   10.0952 C.2     1  UNL1        0.3126
      9 O          63.2914   85.2854    8.6687 O.2     1  UNL1       -0.2519
     10 N          63.4902   83.6361   10.6663 N.am    1  UNL1       -0.2261
     11 C          64.2867   82.6960    9.8109 C.3     1  UNL1        0.1231
     12 H          61.9998   85.6381   11.8869 H       1  UNL1        0.1565
     13 C          60.2036   88.4515    8.6877 C.ar    1  UNL1        0.1535
     14 C          60.7028   89.7548    9.2373 C.ar    1  UNL1        0.0756
     15 C          61.6998   89.7635   10.3580 C.ar    1  UNL1        0.1535
     16 C          62.1975   88.4689   10.9291 C.ar    1  UNL1        0.1060
     17 CL         63.1944   88.4776   12.0498 Cl      1  UNL1       -0.0777
     18 C          61.6982   87.1656   10.3795 C.ar    1  UNL1        0.0788
     19 C          60.7013   87.1569    9.2588 C.ar    1  UNL1        0.1060
     20 CL         60.2020   85.8535    8.7092 Cl      1  UNL1       -0.0777
     21 C          59.2889   89.4752    6.4819 C.3     1  UNL1        0.2525
     22 O          59.2066   88.4428    7.5670 O.3     1  UNL1       -0.4704
     23 O          62.1990   91.0669   10.9076 O.3     1  UNL1       -0.4704
     24 C          63.5122   91.6231   10.4426 C.3     1  UNL1        0.2525
     25 N          64.2323   84.4216   15.7488 N.pl3   1  UNL1       -0.2978
     26 H          64.8633   83.9560   16.3440 H       1  UNL1        0.1536
     27 C          63.9407   85.8783   15.9567 C.ar    1  UNL1        0.0496
     28 C          64.4725   86.8949   14.9905 C.ar    1  UNL1        0.0178
     29 C          64.1810   88.3515   15.1983 C.ar    1  UNL1        0.0382
     30 C          63.3576   88.7915   16.3724 C.ar    1  UNL1        0.1387
     31 C          62.8259   87.7748   17.3387 C.ar    1  UNL1        0.0382
     32 C          63.1174   86.3182   17.1308 C.ar    1  UNL1        0.0178
     33 O          63.0661   90.2481   16.5804 O.3     1  UNL1       -0.4740
     34 C          63.7878   91.2811   15.7666 C.3     1  UNL1        0.2226
     35 C          64.9271   92.0487   16.3690 C.3     1  UNL1        0.1200
     36 N          66.2284   92.1616   15.6315 N.3     1  UNL1       -0.2696
     37 C          66.5419   91.5509   14.2978 C.3     1  UNL1        0.0722
     38 C          67.9519   91.9169   13.9402 C.3     1  UNL1        0.0188
     39 C          68.5099   92.7539   15.0529 C.3     1  UNL1        0.0188
     40 C          67.4447   92.9051   16.0981 C.3     1  UNL1        0.0722
@<TRIPOS>BOND
     1    21    22    1
     2    22    13    1
     3    13    14   ar
     4    14    15   ar
     5    15    23    1
     6    23    24    1
     7    15    16   ar
     8    16    17    1
     9    16    18   ar
    10    18     7    1
    11     7     8   am
    12     8     9    2
    13     8    10   am
    14    10    11    1
    15    10     1    1
    16     1     2   ar
    17     2     3   ar
    18     3    25    1
    19    25    27    1
    20    27    28   ar
    21    28    29   ar
    22    29    30   ar
    23    30    33    1
    24    33    34    1
    25    34    35    1
    26    35    36    1
    27    36    37    1
    28    37    38    1
    29    38    39    1
    30    39    40    1
    31    30    31   ar
    32    31    32   ar
    33     3     4   ar
    34     4     5   ar
    35     5     6   ar
    36    18    19   ar
    37    19    20    1
    38    19    13   ar
    39     6     1   ar
    40    32    27   ar
    41    40    36    1
    42     7    12    1
    43    25    26    1
@<TRIPOS>MOLECULE
*****
 40 43 0 0 0
SMALL
GASTEIGER

@<TRIPOS>ATOM
      1 C          61.4137   86.2338    8.4633 C.ar    1  UNL1        0.1432
      2 C          61.5311   87.6100    9.0482 C.ar    1  UNL1        0.0691
      3 C          60.3527   88.5378    9.0253 C.ar    1  UNL1        0.1368
      4 N          59.0568   88.0893    8.4175 N.ar    1  UNL1       -0.2088
      5 C          58.9393   86.7130    7.8325 C.ar    1  UNL1        0.2012
      6 N          60.1178   85.7852    7.8554 N.ar    1  UNL1       -0.2085
      7 N          62.3588   85.0732   11.0633 N.am    1  UNL1       -0.2663
      8 C          63.0647   84.7258    9.7862 C.2     1  UNL1        0.3126
      9 O          64.2432   83.7980    9.8091 O.2     1  UNL1       -0.2519
     10 N          62.5922   85.3060    8.4862 N.am    1  UNL1       -0.2261
     11 C          63.2981   84.9586    7.2091 C.3     1  UNL1        0.1231
     12 H          61.5854   85.6821   11.0482 H       1  UNL1        0.1565
     13 C          63.2426   82.4311   13.8896 C.ar    1  UNL1        0.1535
     14 C          63.7764   83.3324   14.9632 C.ar    1  UNL1        0.0756
     15 C          63.8377   84.8139   14.7369 C.ar    1  UNL1        0.1535
     16 C          63.3651   85.3942   13.4370 C.ar    1  UNL1        0.1060
     17 CL         63.4264   86.8758   13.2106 Cl      1  UNL1       -0.0777
     18 C          62.8314   84.4929   12.3633 C.ar    1  UNL1        0.0788
     19 C          62.7701   83.0114   12.5896 C.ar    1  UNL1        0.1060
     20 CL         62.2363   82.1101   11.5159 Cl      1  UNL1       -0.0777
     21 C          61.8617   80.2379   14.0710 C.3     1  UNL1        0.2525
     22 O          63.1813   80.9495   14.1159 O.3     1  UNL1       -0.4704
     23 O          64.3715   85.7152   15.8106 O.3     1  UNL1       -0.4704
     24 C          63.4399   86.3003   16.8304 C.3     1  UNL1        0.2525
     25 N          60.4701   89.9140    9.6102 N.pl3   1  UNL1       -0.2978
     26 H          59.8087   90.6054    9.3785 H       1  UNL1        0.1536
     27 C          61.5954   90.2368   10.5481 C.ar    1  UNL1        0.0496
     28 C          62.7932   90.9906   10.0509 C.ar    1  UNL1        0.0178
     29 C          63.9185   91.3134   10.9887 C.ar    1  UNL1        0.0382
     30 C          63.8460   90.8825   12.4236 C.ar    1  UNL1        0.1387
     31 C          62.6482   90.1288   12.9207 C.ar    1  UNL1        0.0382
     32 C          61.5229   89.8059   11.9830 C.ar    1  UNL1        0.0178
     33 O          64.9713   91.2054   13.3615 O.3     1  UNL1       -0.4740
     34 C          65.7729   92.4583   13.1679 C.3     1  UNL1        0.2226
     35 C          67.1665   92.3797   12.6187 C.3     1  UNL1        0.1200
     36 N          67.4397   92.7965   11.2039 N.3     1  UNL1       -0.2696
     37 C          68.3028   92.0638   10.2200 C.3     1  UNL1        0.0722
     38 C          68.2944   92.8336    8.9326 C.3     1  UNL1        0.0188
     39 C          67.4260   94.0421    9.1209 C.3     1  UNL1        0.0188
     40 C          66.8979   94.0192   10.5246 C.3     1  UNL1        0.0722
@<TRIPOS>BOND
     1    21    22    1
     2    22    13    1
     3    13    14   ar
     4    14    15   ar
     5    15    23    1
     6    23    24    1
     7    15    16   ar
     8    16    17    1
     9    16    18   ar
    10    18     7    1
    11     7     8   am
    12     8     9    2
    13     8    10   am
    14    10    11    1
    15    10     1    1
    16     1     2   ar
    17     2     3   ar
    18     3    25    1
    19    25    27    1
    20    27    28   ar
    21    28    29   ar
    22    29    30   ar
    23    30    33    1
    24    33    34    1
    25    34    35    1
    26    35    36    1
    27    36    37    1
    28    37    38    1
    29    38    39    1
    30    39    40    1
    31    30    31   ar
    32    31    32   ar
    33     3     4   ar
    34     4     5   ar
    35     5     6   ar
    36    18    19   ar
    37    19    20    1
    38    19    13   ar
    39     6     1   ar
    40    32    27   ar
    41    40    36    1
    42     7    12    1
    43    25    26    1
@<TRIPOS>MOLECULE
*****
 40 43 0 0 0
SMALL
GASTEIGER

@<TRIPOS>ATOM
      1 C          61.4317   86.2138    8.4737 C.ar    1  UNL1        0.1432
      2 C          61.5371   87.5867    9.0687 C.ar    1  UNL1        0.0691
      3 C          60.3568   88.5117    9.0343 C.ar    1  UNL1        0.1368
      4 N          59.0710   88.0638    8.4049 N.ar    1  UNL1       -0.2088
      5 C          58.9655   86.6909    7.8099 C.ar    1  UNL1        0.2012
      6 N          60.1458   85.7659    7.8442 N.ar    1  UNL1       -0.2085
      7 N          62.3503   85.0505   11.0819 N.am    1  UNL1       -0.2663
      8 C          63.0713   84.7072    9.8122 C.2     1  UNL1        0.3126
      9 O          64.2516   83.7822    9.8466 O.2     1  UNL1       -0.2519
     10 N          62.6120   85.2889    8.5080 N.am    1  UNL1       -0.2261
     11 C          63.3330   84.9455    7.2383 C.3     1  UNL1        0.1231
     12 H          61.5756   85.6576   11.0593 H       1  UNL1        0.1565
     13 C          63.8081   84.7857   14.7636 C.ar    1  UNL1        0.1535
     14 C          63.7282   83.3057   14.9943 C.ar    1  UNL1        0.0756
     15 C          63.1890   82.4073   13.9209 C.ar    1  UNL1        0.1535
     16 C          62.7297   82.9889   12.6168 C.ar    1  UNL1        0.1060
     17 CL         62.1906   82.0905   11.5434 Cl      1  UNL1       -0.0777
     18 C          62.8096   84.4689   12.3861 C.ar    1  UNL1        0.0788
     19 C          63.3488   85.3673   13.4595 C.ar    1  UNL1        0.1060
     20 CL         63.4286   86.8473   13.2287 Cl      1  UNL1       -0.0777
     21 C          63.4151   86.2994   16.8383 C.3     1  UNL1        0.2525
     22 O          64.3472   85.6841   15.8370 O.3     1  UNL1       -0.4704
     23 O          63.1092   80.9273   14.1517 O.3     1  UNL1       -0.4704
     24 C          61.7786   80.2352   14.1276 C.3     1  UNL1        0.2525
     25 N          60.4622   89.8846    9.6293 N.pl3   1  UNL1       -0.2978
     26 H          59.7887   90.5687    9.4111 H       1  UNL1        0.1536
     27 C          61.5938   90.2152   10.5568 C.ar    1  UNL1        0.0496
     28 C          61.5416   89.7759   11.9901 C.ar    1  UNL1        0.0178
     29 C          62.6731   90.1065   12.9176 C.ar    1  UNL1        0.0382
     30 C          63.8570   90.8763   12.4117 C.ar    1  UNL1        0.1387
     31 C          63.9093   91.3155   10.9784 C.ar    1  UNL1        0.0382
     32 C          62.7777   90.9849   10.0510 C.ar    1  UNL1        0.0178
     33 O          64.9886   91.2069   13.3392 O.3     1  UNL1       -0.4740
     34 C          65.7797   92.4654   13.1384 C.3     1  UNL1        0.2226
     35 C          67.1747   92.3952   12.5916 C.3     1  UNL1        0.1200
     36 N          67.4464   92.8056   11.1746 N.3     1  UNL1       -0.2696
     37 C          66.8798   94.0090   10.4812 C.3     1  UNL1        0.0722
     38 C          67.4156   94.0318    9.0803 C.3     1  UNL1        0.0188
     39 C          68.3133   92.8425    8.9080 C.3     1  UNL1        0.0188
     40 C          68.3323   92.0847   10.2023 C.3     1  UNL1        0.0722
@<TRIPOS>BOND
     1    21    22    1
     2    22    13    1
     3    13    14   ar
     4    14    15   ar
     5    15    23    1
     6    23    24    1
     7    15    16   ar
     8    16    17    1
     9    16    18   ar
    10    18     7    1
    11     7     8   am
    12     8     9    2
    13     8    10   am
    14    10    11    1
    15    10     1    1
    16     1     2   ar
    17     2     3   ar
    18     3    25    1
    19    25    27    1
    20    27    28   ar
    21    28    29   ar
    22    29    30   ar
    23    30    33    1
    24    33    34    1
    25    34    35    1
    26    35    36    1
    27    36    37    1
    28    37    38    1
    29    38    39    1
    30    39    40    1
    31    30    31   ar
    32    31    32   ar
    33     3     4   ar
    34     4     5   ar
    35     5     6   ar
    36    18    19   ar
    37    19    20    1
    38    19    13   ar
    39     6     1   ar
    40    32    27   ar
    41    40    36    1
    42     7    12    1
    43    25    26    1
@<TRIPOS>MOLECULE
*****
 40 43 0 0 0
SMALL
GASTEIGER

@<TRIPOS>ATOM
      1 C          61.3165   86.0406    8.4077 C.ar    1  UNL1        0.1432
      2 C          61.2562   87.2471    9.2970 C.ar    1  UNL1        0.0691
      3 C          60.0354   88.1187    9.2967 C.ar    1  UNL1        0.1368
      4 N          58.8750   87.7839    8.4072 N.ar    1  UNL1       -0.2088
      5 C          58.9353   86.5774    7.5179 C.ar    1  UNL1        0.2012
      6 N          60.1560   85.7058    7.5181 N.ar    1  UNL1       -0.2085
      7 N          62.3720   84.9382   10.9905 N.am    1  UNL1       -0.2663
      8 C          63.0650   84.6178    9.6994 C.2     1  UNL1        0.3126
      9 O          64.2858   83.7462    9.6996 O.2     1  UNL1       -0.2519
     10 N          62.5373   85.1690    8.4079 N.am    1  UNL1       -0.2261
     11 C          63.2303   84.8486    7.1168 C.3     1  UNL1        0.1231
     12 H          61.5708   85.5103   10.9903 H       1  UNL1        0.1565
     13 C          63.4594   82.3531   13.7985 C.ar    1  UNL1        0.1535
     14 C          63.9552   83.2845   14.8646 C.ar    1  UNL1        0.0756
     15 C          63.9233   84.7672   14.6393 C.ar    1  UNL1        0.1535
     16 C          63.3956   85.3184   13.3480 C.ar    1  UNL1        0.1060
     17 CL         63.3637   86.8011   13.1227 Cl      1  UNL1       -0.0777
     18 C          62.8998   84.3870   12.2819 C.ar    1  UNL1        0.0788
     19 C          62.9317   82.9044   12.5072 C.ar    1  UNL1        0.1060
     20 CL         62.4358   81.9729   11.4410 Cl      1  UNL1       -0.0777
     21 C          62.2292   80.0676   13.9120 C.3     1  UNL1        0.2525
     22 O          63.4912   80.8705   14.0238 O.3     1  UNL1       -0.4704
     23 O          64.4192   85.6986   15.7055 O.3     1  UNL1       -0.4704
     24 C          63.4612   86.2654   16.7110 C.3     1  UNL1        0.2525
     25 N          59.9751   89.3251   10.1860 N.pl3   1  UNL1       -0.2978
     26 H          59.1107   89.7597   10.3680 H       1  UNL1        0.1536
     27 C          61.2318   89.8694   10.7980 C.ar    1  UNL1        0.0496
     28 C          61.4885   89.6938   12.2654 C.ar    1  UNL1        0.0178
     29 C          62.7451   90.2381   12.8774 C.ar    1  UNL1        0.0382
     30 C          63.7451   90.9579   12.0219 C.ar    1  UNL1        0.1387
     31 C          63.4885   91.1335   10.5545 C.ar    1  UNL1        0.0382
     32 C          62.2318   90.5893    9.9425 C.ar    1  UNL1        0.0178
     33 O          65.0019   91.5022   12.6339 O.3     1  UNL1       -0.4740
     34 C          65.8124   92.5266   11.8966 C.3     1  UNL1        0.2226
     35 C          66.6628   93.4999   12.6578 C.3     1  UNL1        0.1200
     36 N          67.2333   93.1148   13.9906 N.3     1  UNL1       -0.2696
     37 C          66.5271   93.2038   15.3110 C.3     1  UNL1        0.0722
     38 C          67.4676   92.7172   16.3734 C.3     1  UNL1        0.0188
     39 C          68.7550   92.3274   15.7097 C.3     1  UNL1        0.0188
     40 C          68.6102   92.5732   14.2370 C.3     1  UNL1        0.0722
@<TRIPOS>BOND
     1    21    22    1
     2    22    13    1
     3    13    14   ar
     4    14    15   ar
     5    15    23    1
     6    23    24    1
     7    15    16   ar
     8    16    17    1
     9    16    18   ar
    10    18     7    1
    11     7     8   am
    12     8     9    2
    13     8    10   am
    14    10    11    1
    15    10     1    1
    16     1     2   ar
    17     2     3   ar
    18     3    25    1
    19    25    27    1
    20    27    28   ar
    21    28    29   ar
    22    29    30   ar
    23    30    33    1
    24    33    34    1
    25    34    35    1
    26    35    36    1
    27    36    37    1
    28    37    38    1
    29    38    39    1
    30    39    40    1
    31    30    31   ar
    32    31    32   ar
    33     3     4   ar
    34     4     5   ar
    35     5     6   ar
    36    18    19   ar
    37    19    20    1
    38    19    13   ar
    39     6     1   ar
    40    32    27   ar
    41    40    36    1
    42     7    12    1
    43    25    26    1
@<TRIPOS>MOLECULE
*****
 40 43 0 0 0
SMALL
GASTEIGER

@<TRIPOS>ATOM
      1 C          61.3554   86.1788    8.5285 C.ar    1  UNL1        0.1432
      2 C          61.4125   87.3643    9.4457 C.ar    1  UNL1        0.0691
      3 C          60.2637   88.3274    9.4989 C.ar    1  UNL1        0.1368
      4 N          59.0579   88.1050    8.6349 N.ar    1  UNL1       -0.2088
      5 C          59.0007   86.9194    7.7177 C.ar    1  UNL1        0.2012
      6 N          60.1495   85.9563    7.6645 N.ar    1  UNL1       -0.2085
      7 N          62.4080   84.9583   11.0589 N.am    1  UNL1       -0.2663
      8 C          63.0304   84.6054    9.7405 C.2     1  UNL1        0.3126
      9 O          64.1791   83.6423    9.6874 O.2     1  UNL1       -0.2519
     10 N          62.5041   85.2156    8.4753 N.am    1  UNL1       -0.2261
     11 C          63.1265   84.8628    7.1570 C.3     1  UNL1        0.1231
     12 H          61.6540   85.5904   11.0938 H       1  UNL1        0.1565
     13 C          63.9900   84.6179   14.6826 C.ar    1  UNL1        0.1535
     14 C          63.9869   83.1278   14.8544 C.ar    1  UNL1        0.0756
     15 C          63.4574   82.2479   13.7611 C.ar    1  UNL1        0.1535
     16 C          62.9311   82.8580   12.4959 C.ar    1  UNL1        0.1060
     17 CL         62.4017   81.9781   11.4026 Cl      1  UNL1       -0.0777
     18 C          62.9343   84.3481   12.3241 C.ar    1  UNL1        0.0788
     19 C          63.4637   85.2280   13.4174 C.ar    1  UNL1        0.1060
     20 CL         63.4669   86.7182   13.2455 Cl      1  UNL1       -0.0777
     21 C          63.5729   86.1414   16.7453 C.3     1  UNL1        0.2525
     22 O          64.5195   85.4978   15.7759 O.3     1  UNL1       -0.4704
     23 O          63.4543   80.7577   13.9330 O.3     1  UNL1       -0.4704
     24 C          62.1538   80.0133   14.0009 C.3     1  UNL1        0.2525
     25 N          60.3208   89.5129   10.4160 N.pl3   1  UNL1       -0.2978
     26 H          59.4912   89.8798   10.7984 H       1  UNL1        0.1536
     27 C          61.6421   90.1395   10.7505 C.ar    1  UNL1        0.0496
     28 C          62.3619   90.9645    9.7251 C.ar    1  UNL1        0.0178
     29 C          63.6830   91.5911   10.0595 C.ar    1  UNL1        0.0382
     30 C          64.2844   91.3926   11.4193 C.ar    1  UNL1        0.1387
     31 C          63.5646   90.5677   12.4446 C.ar    1  UNL1        0.0382
     32 C          62.2434   89.9411   12.1102 C.ar    1  UNL1        0.0178
     33 O          65.6057   92.0192   11.7537 O.3     1  UNL1       -0.4740
     34 C          65.6833   93.0940   12.7972 C.3     1  UNL1        0.2226
     35 C          65.7588   92.7256   14.2492 C.3     1  UNL1        0.1200
     36 N          67.0622   92.8340   14.9837 N.3     1  UNL1       -0.2696
     37 C          67.8254   91.6979   15.5976 C.3     1  UNL1        0.0722
     38 C          69.0661   92.2593   16.2265 C.3     1  UNL1        0.0188
     39 C          69.0697   93.7423   16.0014 C.3     1  UNL1        0.0188
     40 C          67.8312   94.0974   15.2333 C.3     1  UNL1        0.0722
@<TRIPOS>BOND
     1    21    22    1
     2    22    13    1
     3    13    14   ar
     4    14    15   ar
     5    15    23    1
     6    23    24    1
     7    15    16   ar
     8    16    17    1
     9    16    18   ar
    10    18     7    1
    11     7     8   am
    12     8     9    2
    13     8    10   am
    14    10    11    1
    15    10     1    1
    16     1     2   ar
    17     2     3   ar
    18     3    25    1
    19    25    27    1
    20    27    28   ar
    21    28    29   ar
    22    29    30   ar
    23    30    33    1
    24    33    34    1
    25    34    35    1
    26    35    36    1
    27    36    37    1
    28    37    38    1
    29    38    39    1
    30    39    40    1
    31    30    31   ar
    32    31    32   ar
    33     3     4   ar
    34     4     5   ar
    35     5     6   ar
    36    18    19   ar
    37    19    20    1
    38    19    13   ar
    39     6     1   ar
    40    32    27   ar
    41    40    36    1
    42     7    12    1
    43    25    26    1
