@<TRIPOS>MOLECULE
*****
 34 38 0 0 0
SMALL
GASTEIGER

@<TRIPOS>ATOM
      1 C          63.4849   91.1485   12.3179 C.3     1  UNL1        0.0545
      2 C          64.8207   91.5680   11.7797 C.3     1  UNL1        0.0162
      3 C          65.7725   91.6756   12.9340 C.3     1  UNL1        0.0095
      4 C          67.1863   92.0014   13.3148 C.3     1  UNL1        0.0005
      5 C          67.3126   91.8497   14.8018 C.3     1  UNL1        0.0005
      6 C          65.9768   91.4301   15.3400 C.3     1  UNL1        0.0087
      7 C          65.0250   91.3225   14.1857 C.3     1  UNL1        0.0704
      8 C          63.6112   90.9968   13.8049 C.3     1  UNL1        0.0243
      9 C          64.2775   90.9695   15.4373 C.2     1  UNL1        0.2250
     10 O          63.8909   92.0451   16.4087 O.2     1  UNL1       -0.2749
     11 N          63.9164   89.5407   15.7175 N.am    1  UNL1       -0.2750
     12 C          63.1689   89.1877   16.9691 C.3     1  UNL1        0.1000
     13 C          62.8080   87.7590   17.2493 C.3     1  UNL1        0.0670
     14 C          63.1945   86.6834   16.2779 C.ar    1  UNL1        0.0583
     15 N          62.8335   85.2546   16.5581 N.ar    1  UNL1       -0.2484
     16 C          63.2201   84.1790   15.5867 C.ar    1  UNL1        0.1023
     17 C          63.9676   84.5322   14.3351 C.ar    1  UNL1        0.0902
     18 C          64.3286   85.9608   14.0549 C.ar    1  UNL1        0.0040
     19 C          63.9420   87.0364   15.0263 C.ar    1  UNL1        0.0113
     20 C          64.3030   88.4651   14.7461 C.3     1  UNL1        0.1213
     21 C          64.3542   83.4565   13.3637 C.3     1  UNL1        0.4200
     22 F          64.7408   82.3809   12.3923 F       1  UNL1       -0.1658
     23 F          64.3416   84.4594   12.2482 F       1  UNL1       -0.1658
     24 F          64.3667   82.4537   14.4791 F       1  UNL1       -0.1658
     25 N          62.2412   90.9206   11.5109 N.3     1  UNL1       -0.2975
     26 H          61.4778   91.3754   12.0117 H       1  UNL1        0.1232
     27 C          60.4114   89.2809   10.6664 C.3     1  UNL1        0.1591
     28 C          59.9590   87.8831   10.3642 C.3     1  UNL1        0.1729
     29 O          60.8841   86.7270   10.6043 O.3     1  UNL1       -0.3511
     30 C          62.2616   86.9688   11.1467 C.3     1  UNL1        0.1437
     31 C          62.7140   88.3667   11.4489 C.3     1  UNL1        0.0503
     32 C          61.7888   89.5228   11.2087 C.3     1  UNL1        0.0865
     33 C          58.8202   91.1179   11.5850 C.3     1  UNL1        0.1742
     34 O          59.4863   90.4370   10.4262 O.3     1  UNL1       -0.3496
@<TRIPOS>BOND
     1    33    34    1
     2    27    34    1
     3    27    28    1
     4    28    29    1
     5    29    30    1
     6    30    31    1
     7    31    32    1
     8    32    25    1
     9     1    25    1
    10     1     2    1
    11     3     2    1
    12     3     4    1
    13     4     5    1
    14     5     6    1
    15     6     7    1
    16     7     9    1
    17     9    10    2
    18     9    11   am
    19    11    12    1
    20    12    13    1
    21    13    14    1
    22    14    15   ar
    23    15    16   ar
    24    16    17   ar
    25    17    21    1
    26    21    22    1
    27    21    23    1
    28    21    24    1
    29    17    18   ar
    30    18    19   ar
    31    19    20    1
    32     7     8    1
    33    32    27    1
    34     8     1    1
    35     7     3    1
    36    20    11    1
    37    19    14   ar
    38    25    26    1
@<TRIPOS>MOLECULE
*****
 34 38 0 0 0
SMALL
GASTEIGER

@<TRIPOS>ATOM
      1 C          65.1811   92.0214   11.6245 C.3     1  UNL1        0.0545
      2 C          64.2277   91.9471   10.4689 C.3     1  UNL1        0.0162
      3 C          63.0517   91.1171   10.8908 C.3     1  UNL1        0.0095
      4 C          61.7356   90.5582   10.4374 C.3     1  UNL1        0.0005
      5 C          61.1489   89.7740   11.5736 C.3     1  UNL1        0.0005
      6 C          62.1023   89.8483   12.7292 C.3     1  UNL1        0.0087
      7 C          63.2783   90.6783   12.3073 C.3     1  UNL1        0.0704
      8 C          64.5944   91.2372   12.7607 C.3     1  UNL1        0.0243
      9 C          63.5049   90.2397   13.7236 C.2     1  UNL1        0.2250
     10 O          63.6141   91.2610   14.8168 O.2     1  UNL1       -0.2749
     11 N          63.6223   88.7796   14.0469 N.am    1  UNL1       -0.2750
     12 C          63.8490   88.3409   15.4633 C.3     1  UNL1        0.1000
     13 C          63.9664   86.8809   15.7865 C.3     1  UNL1        0.0670
     14 C          63.8572   85.8595   14.6934 C.ar    1  UNL1        0.0583
     15 N          63.9746   84.3995   15.0167 N.ar    1  UNL1       -0.2484
     16 C          63.8654   83.3781   13.9236 C.ar    1  UNL1        0.1023
     17 C          63.6388   83.8169   12.5071 C.ar    1  UNL1        0.0902
     18 C          63.5213   85.2769   12.1839 C.ar    1  UNL1        0.0040
     19 C          63.6306   86.2982   13.2770 C.ar    1  UNL1        0.0113
     20 C          63.5131   87.7582   12.9538 C.3     1  UNL1        0.1213
     21 C          63.5296   82.7955   11.4140 C.3     1  UNL1        0.4200
     22 F          63.4204   81.7742   10.3209 F       1  UNL1       -0.1658
     23 F          64.7920   83.3208   10.7971 F       1  UNL1       -0.1658
     24 F          62.2672   82.2703   12.0308 F       1  UNL1       -0.1658
     25 N          66.4913   92.7516   11.6410 N.3     1  UNL1       -0.2975
     26 H          66.7506   92.8691   12.6205 H       1  UNL1        0.1232
     27 C          67.2229   94.2346    9.6372 C.3     1  UNL1        0.1591
     28 C          67.3372   95.5849    8.9940 C.3     1  UNL1        0.1729
     29 O          66.8341   96.8024    9.7114 O.3     1  UNL1       -0.3511
     30 C          66.2167   96.6696   11.0720 C.3     1  UNL1        0.1437
     31 C          66.1025   95.3193   11.7153 C.3     1  UNL1        0.0503
     32 C          66.6056   94.1018   10.9978 C.3     1  UNL1        0.0865
     33 C          69.0914   92.4768    9.2262 C.3     1  UNL1        0.1742
     34 O          67.7260   93.0172    8.9199 O.3     1  UNL1       -0.3496
@<TRIPOS>BOND
     1    33    34    1
     2    27    34    1
     3    27    28    1
     4    28    29    1
     5    29    30    1
     6    30    31    1
     7    31    32    1
     8    32    25    1
     9     1    25    1
    10     1     2    1
    11     3     2    1
    12     3     4    1
    13     4     5    1
    14     5     6    1
    15     6     7    1
    16     7     9    1
    17     9    10    2
    18     9    11   am
    19    11    12    1
    20    12    13    1
    21    13    14    1
    22    14    15   ar
    23    15    16   ar
    24    16    17   ar
    25    17    21    1
    26    21    22    1
    27    21    23    1
    28    21    24    1
    29    17    18   ar
    30    18    19   ar
    31    19    20    1
    32     7     8    1
    33    32    27    1
    34     8     1    1
    35     7     3    1
    36    20    11    1
    37    19    14   ar
    38    25    26    1
@<TRIPOS>MOLECULE
*****
 34 38 0 0 0
SMALL
GASTEIGER

@<TRIPOS>ATOM
      1 C          61.9680   90.0876   12.2195 C.3     1  UNL1        0.0545
      2 C          62.9548   90.7668   11.3168 C.3     1  UNL1        0.0162
      3 C          64.1358   91.1765   12.1457 C.3     1  UNL1        0.0095
      4 C          65.4756   91.8494   12.1002 C.3     1  UNL1        0.0005
      5 C          66.0468   91.8393   13.4872 C.3     1  UNL1        0.0005
      6 C          65.0601   91.1601   14.3899 C.3     1  UNL1        0.0087
      7 C          63.8790   90.7504   13.5609 C.3     1  UNL1        0.0704
      8 C          62.5392   90.0775   13.6065 C.3     1  UNL1        0.0243
      9 C          63.6222   90.3244   14.9760 C.2     1  UNL1        0.2250
     10 O          63.3664   91.3555   16.0350 O.2     1  UNL1       -0.2749
     11 N          63.6211   88.8673   15.3322 N.am    1  UNL1       -0.2750
     12 C          63.3643   88.4413   16.7472 C.3     1  UNL1        0.1000
     13 C          63.3633   86.9842   17.1033 C.3     1  UNL1        0.0670
     14 C          63.6191   85.9531   16.0443 C.ar    1  UNL1        0.0583
     15 N          63.6180   84.4960   16.4005 N.ar    1  UNL1       -0.2484
     16 C          63.8738   83.4649   15.3415 C.ar    1  UNL1        0.1023
     17 C          64.1306   83.8910   13.9264 C.ar    1  UNL1        0.0902
     18 C          64.1317   85.3480   13.5703 C.ar    1  UNL1        0.0040
     19 C          63.8759   86.3791   14.6293 C.ar    1  UNL1        0.0113
     20 C          63.8769   87.8362   14.2732 C.3     1  UNL1        0.1213
     21 C          64.3864   82.8599   12.8674 C.3     1  UNL1        0.4200
     22 F          64.6422   81.8288   11.8084 F       1  UNL1       -0.1658
     23 F          64.7833   83.9431   11.9086 F       1  UNL1       -0.1658
     24 F          63.9896   81.7767   13.8262 F       1  UNL1       -0.1658
     25 N          60.6427   89.5183   11.8077 N.3     1  UNL1       -0.2975
     26 H          60.3969   88.8125   12.5017 H       1  UNL1        0.1232
     27 C          60.7694   87.4104   10.2943 C.3     1  UNL1        0.1591
     28 C          60.6155   86.7663    8.9484 C.3     1  UNL1        0.1729
     29 O          60.1808   87.5861    7.7699 O.3     1  UNL1       -0.3511
     30 C          59.9000   89.0501    7.9373 C.3     1  UNL1        0.1437
     31 C          60.0540   89.6942    9.2832 C.3     1  UNL1        0.0503
     32 C          60.4887   88.8743   10.4617 C.3     1  UNL1        0.0865
     33 C          61.8594   85.2582   11.2588 C.3     1  UNL1        0.1742
     34 O          61.2042   86.5905   11.4728 O.3     1  UNL1       -0.3496
@<TRIPOS>BOND
     1    33    34    1
     2    27    34    1
     3    27    28    1
     4    28    29    1
     5    29    30    1
     6    30    31    1
     7    31    32    1
     8    32    25    1
     9     1    25    1
    10     1     2    1
    11     3     2    1
    12     3     4    1
    13     4     5    1
    14     5     6    1
    15     6     7    1
    16     7     9    1
    17     9    10    2
    18     9    11   am
    19    11    12    1
    20    12    13    1
    21    13    14    1
    22    14    15   ar
    23    15    16   ar
    24    16    17   ar
    25    17    21    1
    26    21    22    1
    27    21    23    1
    28    21    24    1
    29    17    18   ar
    30    18    19   ar
    31    19    20    1
    32     7     8    1
    33    32    27    1
    34     8     1    1
    35     7     3    1
    36    20    11    1
    37    19    14   ar
    38    25    26    1
@<TRIPOS>MOLECULE
*****
 34 38 0 0 0
SMALL
GASTEIGER

@<TRIPOS>ATOM
      1 C          66.2355   92.3123   12.7061 C.3     1  UNL1        0.0545
      2 C          66.2371   92.1333   14.1954 C.3     1  UNL1        0.0162
      3 C          64.9990   91.3750   14.5724 C.3     1  UNL1        0.0095
      4 C          64.2348   90.7957   15.7258 C.3     1  UNL1        0.0005
      5 C          62.9957   90.1481   15.1824 C.3     1  UNL1        0.0005
      6 C          62.9941   90.3271   13.6932 C.3     1  UNL1        0.0087
      7 C          64.2322   91.0854   13.3161 C.3     1  UNL1        0.0704
      8 C          64.9964   91.6647   12.1627 C.3     1  UNL1        0.0243
      9 C          63.4655   90.7958   12.0599 C.2     1  UNL1        0.2250
     10 O          63.0667   91.9188   11.1489 O.2     1  UNL1       -0.2749
     11 N          63.0975   89.3832   11.7146 N.am    1  UNL1       -0.2750
     12 C          62.3308   89.0936   10.4583 C.3     1  UNL1        0.1000
     13 C          61.9629   87.6810   10.1131 C.3     1  UNL1        0.0670
     14 C          62.3617   86.5580   11.0240 C.ar    1  UNL1        0.0583
     15 N          61.9937   85.1454   10.6787 N.ar    1  UNL1       -0.2484
     16 C          62.3925   84.0224   11.5897 C.ar    1  UNL1        0.1023
     17 C          63.1593   84.3121   12.8460 C.ar    1  UNL1        0.0902
     18 C          63.5272   85.7247   13.1913 C.ar    1  UNL1        0.0040
     19 C          63.1284   86.8476   12.2803 C.ar    1  UNL1        0.0113
     20 C          63.4963   88.2602   12.6256 C.3     1  UNL1        0.1213
     21 C          63.5581   83.1891   13.7570 C.3     1  UNL1        0.4200
     22 F          63.9570   82.0662   14.6680 F       1  UNL1       -0.1658
     23 F          64.8540   83.8860   14.0487 F       1  UNL1       -0.1658
     24 F          62.2623   82.4923   13.4653 F       1  UNL1       -0.1658
     25 N          67.2882   93.0156   11.9015 N.3     1  UNL1       -0.2975
     26 H          67.9367   93.4352   12.5676 H       1  UNL1        0.1232
     27 C          67.7314   94.3490    9.7162 C.3     1  UNL1        0.1591
     28 C          67.3411   95.4299    8.7522 C.3     1  UNL1        0.1729
     29 O          66.1174   96.2583    9.0094 O.3     1  UNL1       -0.3511
     30 C          65.2839   96.0058   10.2308 C.3     1  UNL1        0.1437
     31 C          65.6741   94.9249   11.1948 C.3     1  UNL1        0.0503
     32 C          66.8979   94.0965   10.9375 C.3     1  UNL1        0.0865
     33 C          68.8281   92.1806    8.7967 C.3     1  UNL1        0.1742
     34 O          68.9551   93.5206    9.4589 O.3     1  UNL1       -0.3496
@<TRIPOS>BOND
     1    33    34    1
     2    27    34    1
     3    27    28    1
     4    28    29    1
     5    29    30    1
     6    30    31    1
     7    31    32    1
     8    32    25    1
     9     1    25    1
    10     1     2    1
    11     3     2    1
    12     3     4    1
    13     4     5    1
    14     5     6    1
    15     6     7    1
    16     7     9    1
    17     9    10    2
    18     9    11   am
    19    11    12    1
    20    12    13    1
    21    13    14    1
    22    14    15   ar
    23    15    16   ar
    24    16    17   ar
    25    17    21    1
    26    21    22    1
    27    21    23    1
    28    21    24    1
    29    17    18   ar
    30    18    19   ar
    31    19    20    1
    32     7     8    1
    33    32    27    1
    34     8     1    1
    35     7     3    1
    36    20    11    1
    37    19    14   ar
    38    25    26    1
@<TRIPOS>MOLECULE
*****
 34 38 0 0 0
SMALL
GASTEIGER

@<TRIPOS>ATOM
      1 C          64.5576   91.9022   11.2268 C.3     1  UNL1        0.0545
      2 C          63.4999   91.7591   10.1728 C.3     1  UNL1        0.0162
      3 C          62.4296   90.8559   10.7100 C.3     1  UNL1        0.0095
      4 C          61.1144   90.2092   10.3906 C.3     1  UNL1        0.0005
      5 C          60.6977   89.3945   11.5791 C.3     1  UNL1        0.0005
      6 C          61.7553   89.5376   12.6330 C.3     1  UNL1        0.0087
      7 C          62.8257   90.4408   12.0959 C.3     1  UNL1        0.0704
      8 C          64.1409   91.0874   12.4153 C.3     1  UNL1        0.0243
      9 C          63.2219   90.0257   13.4818 C.2     1  UNL1        0.2250
     10 O          63.3669   91.0572   14.5611 O.2     1  UNL1       -0.2749
     11 N          63.4731   88.5789   13.7884 N.am    1  UNL1       -0.2750
     12 C          63.8693   88.1638   15.1743 C.3     1  UNL1        0.1000
     13 C          64.1204   86.7172   15.4809 C.3     1  UNL1        0.0670
     14 C          63.9754   85.6856   14.4016 C.ar    1  UNL1        0.0583
     15 N          64.2266   84.2389   14.7083 N.ar    1  UNL1       -0.2484
     16 C          64.0816   83.2073   13.6290 C.ar    1  UNL1        0.1023
     17 C          63.6854   83.6225   12.2430 C.ar    1  UNL1        0.0902
     18 C          63.4342   85.0692   11.9365 C.ar    1  UNL1        0.0040
     19 C          63.5792   86.1007   13.0157 C.ar    1  UNL1        0.0113
     20 C          63.3281   87.5474   12.7091 C.3     1  UNL1        0.1213
     21 C          63.5404   82.5909   11.1638 C.3     1  UNL1        0.4200
     22 F          63.3954   81.5594   10.0845 F       1  UNL1       -0.1658
     23 F          62.4029   81.9649   11.9149 F       1  UNL1       -0.1658
     24 F          64.6778   83.2170   10.4126 F       1  UNL1       -0.1658
     25 N          65.8118   92.7171   11.1124 N.3     1  UNL1       -0.2975
     26 H          66.2861   92.4098   10.2632 H       1  UNL1        0.1232
     27 C          68.1753   92.0658   11.9724 C.3     1  UNL1        0.1591
     28 C          69.1938   92.0333   13.0732 C.3     1  UNL1        0.1729
     29 O          68.8673   92.6197   14.4146 O.3     1  UNL1       -0.3511
     30 C          67.5222   93.2386   14.6554 C.3     1  UNL1        0.1437
     31 C          66.5037   93.2710   13.5546 C.3     1  UNL1        0.0503
     32 C          66.8303   92.6846   12.2131 C.3     1  UNL1        0.0865
     33 C          68.5702   92.3647    9.4220 C.3     1  UNL1        0.1742
     34 O          68.5018   91.4794   10.6310 O.3     1  UNL1       -0.3496
@<TRIPOS>BOND
     1    33    34    1
     2    27    34    1
     3    27    28    1
     4    28    29    1
     5    29    30    1
     6    30    31    1
     7    31    32    1
     8    32    25    1
     9     1    25    1
    10     1     2    1
    11     3     2    1
    12     3     4    1
    13     4     5    1
    14     5     6    1
    15     6     7    1
    16     7     9    1
    17     9    10    2
    18     9    11   am
    19    11    12    1
    20    12    13    1
    21    13    14    1
    22    14    15   ar
    23    15    16   ar
    24    16    17   ar
    25    17    21    1
    26    21    22    1
    27    21    23    1
    28    21    24    1
    29    17    18   ar
    30    18    19   ar
    31    19    20    1
    32     7     8    1
    33    32    27    1
    34     8     1    1
    35     7     3    1
    36    20    11    1
    37    19    14   ar
    38    25    26    1
@<TRIPOS>MOLECULE
*****
 34 38 0 0 0
SMALL
GASTEIGER

@<TRIPOS>ATOM
      1 C          62.7704   90.7587   10.9336 C.3     1  UNL1        0.0545
      2 C          61.7743   91.0527   12.0159 C.3     1  UNL1        0.0162
      3 C          60.6378   90.0839   11.8756 C.3     1  UNL1        0.0095
      4 C          59.3198   89.6669   12.4578 C.3     1  UNL1        0.0005
      5 C          58.7989   88.5163   11.6486 C.3     1  UNL1        0.0005
      6 C          59.7949   88.2222   10.5663 C.3     1  UNL1        0.0087
      7 C          60.9314   89.1910   10.7066 C.3     1  UNL1        0.0704
      8 C          62.2494   89.6081   10.1244 C.3     1  UNL1        0.0243
      9 C          61.2251   88.2982    9.5376 C.2     1  UNL1        0.2250
     10 O          60.8481   88.7294    8.1512 O.2     1  UNL1       -0.2749
     11 N          61.8957   86.9741    9.7549 N.am    1  UNL1       -0.2750
     12 C          62.1894   86.0813    8.5859 C.3     1  UNL1        0.1000
     13 C          62.8600   84.7574    8.8032 C.3     1  UNL1        0.0670
     14 C          63.2369   84.3262   10.1896 C.ar    1  UNL1        0.0583
     15 N          63.9076   83.0021   10.4069 N.ar    1  UNL1       -0.2484
     16 C          64.2845   82.5709   11.7933 C.ar    1  UNL1        0.1023
     17 C          63.9908   83.4638   12.9623 C.ar    1  UNL1        0.0902
     18 C          63.3202   84.7878   12.7449 C.ar    1  UNL1        0.0040
     19 C          62.9433   85.2190   11.3586 C.ar    1  UNL1        0.0113
     20 C          62.2727   86.5430   11.1412 C.3     1  UNL1        0.1213
     21 C          64.3678   83.0326   14.3487 C.3     1  UNL1        0.4200
     22 F          64.7447   82.6014   15.7350 F       1  UNL1       -0.1658
     23 F          64.8687   84.4156   14.6426 F       1  UNL1       -0.1658
     24 F          63.8669   81.6496   14.0547 F       1  UNL1       -0.1658
     25 N          64.0608   91.4873   10.7013 N.3     1  UNL1       -0.2975
     26 H          64.6697   90.8510   10.1867 H       1  UNL1        0.1232
     27 C          65.6366   93.2714   11.7422 C.3     1  UNL1        0.1591
     28 C          66.4301   93.7819   12.9083 C.3     1  UNL1        0.1729
     29 O          66.4414   93.0186   14.1995 O.3     1  UNL1       -0.3511
     30 C          65.6592   91.7448   14.3247 C.3     1  UNL1        0.1437
     31 C          64.8656   91.2343   13.1586 C.3     1  UNL1        0.0503
     32 C          64.8544   91.9977   11.8673 C.3     1  UNL1        0.0865
     33 C          66.9123   94.3107    9.7317 C.3     1  UNL1        0.1742
     34 O          65.6253   94.0347   10.4511 O.3     1  UNL1       -0.3496
@<TRIPOS>BOND
     1    33    34    1
     2    27    34    1
     3    27    28    1
     4    28    29    1
     5    29    30    1
     6    30    31    1
     7    31    32    1
     8    32    25    1
     9     1    25    1
    10     1     2    1
    11     3     2    1
    12     3     4    1
    13     4     5    1
    14     5     6    1
    15     6     7    1
    16     7     9    1
    17     9    10    2
    18     9    11   am
    19    11    12    1
    20    12    13    1
    21    13    14    1
    22    14    15   ar
    23    15    16   ar
    24    16    17   ar
    25    17    21    1
    26    21    22    1
    27    21    23    1
    28    21    24    1
    29    17    18   ar
    30    18    19   ar
    31    19    20    1
    32     7     8    1
    33    32    27    1
    34     8     1    1
    35     7     3    1
    36    20    11    1
    37    19    14   ar
    38    25    26    1
@<TRIPOS>MOLECULE
*****
 34 38 0 0 0
SMALL
GASTEIGER

@<TRIPOS>ATOM
      1 C          62.3864   88.9596    9.8141 C.3     1  UNL1        0.0545
      2 C          60.9685   89.4153    9.6355 C.3     1  UNL1        0.0162
      3 C          60.1889   88.2815    9.0382 C.3     1  UNL1        0.0095
      4 C          58.8309   87.8624    8.5587 C.3     1  UNL1        0.0005
      5 C          58.9276   86.4469    8.0717 C.3     1  UNL1        0.0005
      6 C          60.3455   85.9912    8.2503 C.3     1  UNL1        0.0087
      7 C          61.1251   87.1250    8.8476 C.3     1  UNL1        0.0704
      8 C          62.4831   87.5441    9.3271 C.3     1  UNL1        0.0243
      9 C          62.0612   85.9686    8.6570 C.2     1  UNL1        0.2250
     10 O          62.4041   85.5014    7.2735 O.2     1  UNL1       -0.2749
     11 N          62.6544   85.2794    9.8500 N.am    1  UNL1       -0.2750
     12 C          63.5905   84.1229    9.6594 C.3     1  UNL1        0.1000
     13 C          64.1837   83.4338   10.8523 C.3     1  UNL1        0.0670
     14 C          63.8407   83.9010   12.2358 C.ar    1  UNL1        0.0583
     15 N          64.4340   83.2117   13.4288 N.ar    1  UNL1       -0.2484
     16 C          64.0910   83.6789   14.8123 C.ar    1  UNL1        0.1023
     17 C          63.1549   84.8354   15.0028 C.ar    1  UNL1        0.0902
     18 C          62.5617   85.5246   13.8099 C.ar    1  UNL1        0.0040
     19 C          62.9046   85.0574   12.4264 C.ar    1  UNL1        0.0113
     20 C          62.3115   85.7466   11.2335 C.3     1  UNL1        0.1213
     21 C          62.8119   85.3026   16.3863 C.3     1  UNL1        0.4200
     22 F          62.4690   85.7698   17.7699 F       1  UNL1       -0.1658
     23 F          64.2663   85.5402   16.6666 F       1  UNL1       -0.1658
     24 F          61.3576   85.0651   16.1061 F       1  UNL1       -0.1658
     25 N          63.5103   89.7760   10.3802 N.3     1  UNL1       -0.2975
     26 H          64.3674   89.2459   10.2233 H       1  UNL1        0.1232
     27 C          64.2280   91.3943   12.2818 C.3     1  UNL1        0.1591
     28 C          64.2177   91.7817   13.7309 C.3     1  UNL1        0.1729
     29 O          63.4791   90.9383   14.7274 O.3     1  UNL1       -0.3511
     30 C          62.7509   89.7074   14.2749 C.3     1  UNL1        0.1437
     31 C          62.7613   89.3199   12.8259 C.3     1  UNL1        0.0503
     32 C          63.4999   90.1634   11.8293 C.3     1  UNL1        0.0865
     33 C          66.0110   93.2082   11.7516 C.3     1  UNL1        0.1742
     34 O          64.9666   92.2377   11.2852 O.3     1  UNL1       -0.3496
@<TRIPOS>BOND
     1    33    34    1
     2    27    34    1
     3    27    28    1
     4    28    29    1
     5    29    30    1
     6    30    31    1
     7    31    32    1
     8    32    25    1
     9     1    25    1
    10     1     2    1
    11     3     2    1
    12     3     4    1
    13     4     5    1
    14     5     6    1
    15     6     7    1
    16     7     9    1
    17     9    10    2
    18     9    11   am
    19    11    12    1
    20    12    13    1
    21    13    14    1
    22    14    15   ar
    23    15    16   ar
    24    16    17   ar
    25    17    21    1
    26    21    22    1
    27    21    23    1
    28    21    24    1
    29    17    18   ar
    30    18    19   ar
    31    19    20    1
    32     7     8    1
    33    32    27    1
    34     8     1    1
    35     7     3    1
    36    20    11    1
    37    19    14   ar
    38    25    26    1
@<TRIPOS>MOLECULE
*****
 34 38 0 0 0
SMALL
GASTEIGER

@<TRIPOS>ATOM
      1 C          61.8769   85.2323   11.3239 C.3     1  UNL1        0.0545
      2 C          62.8275   84.5802   10.3642 C.3     1  UNL1        0.0162
      3 C          63.7101   83.6519   11.1447 C.3     1  UNL1        0.0095
      4 C          64.8431   82.6752   11.0341 C.3     1  UNL1        0.0005
      5 C          65.1382   82.1499   12.4078 C.3     1  UNL1        0.0005
      6 C          64.1876   82.8019   13.3674 C.3     1  UNL1        0.0087
      7 C          63.3050   83.7302   12.5869 C.3     1  UNL1        0.0704
      8 C          62.1720   84.7070   12.6976 C.3     1  UNL1        0.0243
      9 C          62.8998   83.8086   14.0290 C.2     1  UNL1        0.2250
     10 O          62.3608   82.5934   14.7237 O.2     1  UNL1       -0.2749
     11 N          63.0335   85.1023   14.7764 N.am    1  UNL1       -0.2750
     12 C          62.6283   85.1807   16.2185 C.3     1  UNL1        0.1000
     13 C          62.7621   86.4743   16.9658 C.3     1  UNL1        0.0670
     14 C          63.3010   87.6896   16.2711 C.ar    1  UNL1        0.0583
     15 N          63.4348   88.9833   17.0185 N.ar    1  UNL1       -0.2484
     16 C          63.9737   90.1985   16.3238 C.ar    1  UNL1        0.1023
     17 C          64.3789   90.1201   14.8816 C.ar    1  UNL1        0.0902
     18 C          64.2452   88.8265   14.1343 C.ar    1  UNL1        0.0040
     19 C          63.7062   87.6112   14.8290 C.ar    1  UNL1        0.0113
     20 C          63.5725   86.3176   14.0817 C.3     1  UNL1        0.1213
     21 C          64.9179   91.3354   14.1869 C.3     1  UNL1        0.4200
     22 F          65.4568   92.5507   13.4921 F       1  UNL1       -0.1658
     23 F          66.1979   91.2088   14.9585 F       1  UNL1       -0.1658
     24 F          63.6378   91.4620   13.4152 F       1  UNL1       -0.1658
     25 N          60.8172   86.2339   10.9717 N.3     1  UNL1       -0.2975
     26 H          60.2932   85.8449   10.1878 H       1  UNL1        0.1232
     27 C          60.3806   88.3863    9.5838 C.3     1  UNL1        0.1591
     28 C          60.7676   89.7826    9.1957 C.3     1  UNL1        0.1729
     29 O          61.9783   90.4227    9.8075 O.3     1  UNL1       -0.3511
     30 C          62.8020   89.6666   10.8075 C.3     1  UNL1        0.1437
     31 C          62.4150   88.2703   11.1956 C.3     1  UNL1        0.0503
     32 C          61.2042   87.6302   10.5837 C.3     1  UNL1        0.0865
     33 C          59.3194   86.8381    7.7874 C.3     1  UNL1        0.1742
     34 O          59.1699   87.7461    8.9720 O.3     1  UNL1       -0.3496
@<TRIPOS>BOND
     1    33    34    1
     2    27    34    1
     3    27    28    1
     4    28    29    1
     5    29    30    1
     6    30    31    1
     7    31    32    1
     8    32    25    1
     9     1    25    1
    10     1     2    1
    11     3     2    1
    12     3     4    1
    13     4     5    1
    14     5     6    1
    15     6     7    1
    16     7     9    1
    17     9    10    2
    18     9    11   am
    19    11    12    1
    20    12    13    1
    21    13    14    1
    22    14    15   ar
    23    15    16   ar
    24    16    17   ar
    25    17    21    1
    26    21    22    1
    27    21    23    1
    28    21    24    1
    29    17    18   ar
    30    18    19   ar
    31    19    20    1
    32     7     8    1
    33    32    27    1
    34     8     1    1
    35     7     3    1
    36    20    11    1
    37    19    14   ar
    38    25    26    1
@<TRIPOS>MOLECULE
*****
 34 38 0 0 0
SMALL
GASTEIGER

@<TRIPOS>ATOM
      1 C          64.2639   89.0565   14.4769 C.3     1  UNL1        0.0545
      2 C          63.5051   89.4677   15.7037 C.3     1  UNL1        0.0162
      3 C          63.1569   88.2267   16.4710 C.3     1  UNL1        0.0095
      4 C          62.4727   87.7138   17.7033 C.3     1  UNL1        0.0005
      5 C          62.5935   86.2187   17.7124 C.3     1  UNL1        0.0005
      6 C          63.3524   85.8075   16.4856 C.3     1  UNL1        0.0087
      7 C          63.7006   87.0485   15.7183 C.3     1  UNL1        0.0704
      8 C          64.3848   87.5614   14.4859 C.3     1  UNL1        0.0243
      9 C          64.2443   85.8704   14.9657 C.2     1  UNL1        0.2250
     10 O          65.2208   84.9437   15.6271 O.2     1  UNL1       -0.2749
     11 N          63.8114   85.6190   13.5516 N.am    1  UNL1       -0.2750
     12 C          64.3551   84.4410   12.7990 C.3     1  UNL1        0.1000
     13 C          63.9222   84.1896   11.3850 C.3     1  UNL1        0.0670
     14 C          62.9456   85.1164   10.7237 C.ar    1  UNL1        0.0583
     15 N          62.5127   84.8650    9.3096 N.ar    1  UNL1       -0.2484
     16 C          61.5361   85.7918    8.6482 C.ar    1  UNL1        0.1023
     17 C          60.9924   86.9699    9.4009 C.ar    1  UNL1        0.0902
     18 C          61.4253   87.2213   10.8149 C.ar    1  UNL1        0.0040
     19 C          62.4019   86.2945   11.4763 C.ar    1  UNL1        0.0113
     20 C          62.8348   86.5458   12.8903 C.3     1  UNL1        0.1213
     21 C          60.0159   87.8967    8.7396 C.3     1  UNL1        0.4200
     22 F          59.0393   88.8235    8.0782 F       1  UNL1       -0.1658
     23 F          60.9383   89.0515    8.9957 F       1  UNL1       -0.1658
     24 F          59.0934   86.7419    8.4835 F       1  UNL1       -0.1658
     25 N          64.8067   89.9786   13.4256 N.3     1  UNL1       -0.2975
     26 H          65.4815   89.4405   12.8819 H       1  UNL1        0.1232
     27 C          65.6882   92.3458   12.8180 C.3     1  UNL1        0.1591
     28 C          66.3718   93.6197   13.2181 C.3     1  UNL1        0.1729
     29 O          66.8573   93.8002   14.6258 O.3     1  UNL1       -0.3511
     30 C          66.6593   92.7068   15.6335 C.3     1  UNL1        0.1437
     31 C          65.9758   91.4329   15.2334 C.3     1  UNL1        0.0503
     32 C          65.4902   91.2525   13.8256 C.3     1  UNL1        0.0865
     33 C          65.5336   93.1896   10.3656 C.3     1  UNL1        0.1742
     34 O          65.2027   92.1653   11.4103 O.3     1  UNL1       -0.3496
@<TRIPOS>BOND
     1    33    34    1
     2    27    34    1
     3    27    28    1
     4    28    29    1
     5    29    30    1
     6    30    31    1
     7    31    32    1
     8    32    25    1
     9     1    25    1
    10     1     2    1
    11     3     2    1
    12     3     4    1
    13     4     5    1
    14     5     6    1
    15     6     7    1
    16     7     9    1
    17     9    10    2
    18     9    11   am
    19    11    12    1
    20    12    13    1
    21    13    14    1
    22    14    15   ar
    23    15    16   ar
    24    16    17   ar
    25    17    21    1
    26    21    22    1
    27    21    23    1
    28    21    24    1
    29    17    18   ar
    30    18    19   ar
    31    19    20    1
    32     7     8    1
    33    32    27    1
    34     8     1    1
    35     7     3    1
    36    20    11    1
    37    19    14   ar
    38    25    26    1
