@<TRIPOS>MOLECULE
*****
 36 41 0 0 0
SMALL
GASTEIGER

@<TRIPOS>ATOM
      1 C          59.3740   90.1054    6.0282 C.ar    1  UNL1       -0.0065
      2 C          58.3148   91.0527    5.5479 C.ar    1  UNL1       -0.0029
      3 C          58.6311   92.0478    4.4711 C.ar    1  UNL1        0.0010
      4 C          60.0066   92.0958    3.8747 C.ar    1  UNL1        0.0167
      5 C          61.0658   91.1485    4.3550 C.ar    1  UNL1       -0.0206
      6 C          60.7495   90.1533    5.4318 C.ar    1  UNL1       -0.0071
      7 C          62.4412   91.1964    3.7585 C.3     1  UNL1        0.0312
      8 C          62.7575   92.1916    2.6817 C.3     1  UNL1        0.0360
      9 C          61.6983   93.1389    2.2013 C.ar    1  UNL1        0.0392
     10 C          60.3228   93.0910    2.7978 C.ar    1  UNL1        0.1187
     11 N          59.4899   94.1428    2.1271 N.ar    1  UNL1       -0.0772
     12 O          60.3505   94.8407    1.1161 O.2     1  UNL1       -0.3505
     13 C          61.7154   94.2203    1.1620 C.ar    1  UNL1        0.2097
     14 C          62.8910   94.6124    0.3169 C.ar    1  UNL1        0.2173
     15 O          64.2435   95.0194    0.8222 O.2     1  UNL1       -0.3502
     16 N          65.1089   95.3249   -0.3643 N.ar    1  UNL1       -0.0769
     17 C          64.2913   95.1068   -1.6029 C.ar    1  UNL1        0.1270
     18 C          62.9206   94.6664   -1.1818 C.ar    1  UNL1        0.1323
     19 C          64.7618   95.2958   -3.0145 C.ar    1  UNL1        0.0209
     20 C          64.5880   94.1935   -4.0169 C.ar    1  UNL1        0.0016
     21 C          65.0585   94.3825   -5.4286 C.ar    1  UNL1        0.0000
     22 C          65.7030   95.6738   -5.8379 C.ar    1  UNL1        0.0000
     23 C          65.8768   96.7760   -4.8355 C.ar    1  UNL1        0.0000
     24 C          65.4063   96.5870   -3.4238 C.ar    1  UNL1        0.0016
     25 C          61.7798   94.3378   -2.0986 C.3     1  UNL1        0.4231
     26 F          60.6390   94.0091   -3.0154 F       1  UNL1       -0.1657
     27 F          62.0534   92.8744   -1.9145 F       1  UNL1       -0.1657
     28 F          61.5062   95.8011   -2.2828 F       1  UNL1       -0.1657
     29 C          59.0577   89.1102    7.1051 C.3     1  UNL1        0.0992
     30 C          61.3271   88.6772    9.8937 C.3     1  UNL1        0.0684
     31 C          60.5144   89.8169    9.3546 C.3     1  UNL1        0.0793
     32 N          59.9977   88.9308    8.2602 N.3     1  UNL1       -0.2682
     33 C          60.8105   87.7911    8.7992 C.3     1  UNL1        0.0793
     34 O          63.1354   89.6373   11.4931 O.co2   1  UNL1       -0.5491
     35 C          62.2672   88.4978   11.0488 C.2     1  UNL1        0.0527
     36 O          62.3389   87.1788   11.7595 O.co2   1  UNL1       -0.5491
@<TRIPOS>UNITY_ATOM_ATTR
34 1
charge -1
@<TRIPOS>BOND
     1    34    35   ar
     2    35    36   ar
     3    35    30    1
     4    30    31    1
     5    31    32    1
     6    32    29    1
     7    29     1    1
     8     1     2   ar
     9     2     3   ar
    10     3     4   ar
    11     4     5   ar
    12     5     6   ar
    13     5     7    1
    14     7     8    1
    15     8     9    1
    16     9    10   ar
    17    10    11   ar
    18    11    12   ar
    19    12    13   ar
    20    13    14    1
    21    14    15   ar
    22    15    16   ar
    23    16    17   ar
    24    17    19    1
    25    19    20   ar
    26    20    21   ar
    27    21    22   ar
    28    22    23   ar
    29    23    24   ar
    30    17    18   ar
    31    18    25    1
    32    25    26    1
    33    25    27    1
    34    25    28    1
    35    32    33    1
    36    33    30    1
    37     6     1   ar
    38    13     9   ar
    39    18    14   ar
    40    10     4    1
    41    24    19   ar
@<TRIPOS>MOLECULE
*****
 36 41 0 0 0
SMALL
GASTEIGER

@<TRIPOS>ATOM
      1 C          62.8060   85.0628   16.2144 C.ar    1  UNL1       -0.0065
      2 C          62.2070   85.9573   17.2590 C.ar    1  UNL1       -0.0029
      3 C          62.4804   87.4318   17.2300 C.ar    1  UNL1        0.0010
      4 C          63.3527   88.0119   16.1564 C.ar    1  UNL1        0.0167
      5 C          63.9516   87.1175   15.1118 C.ar    1  UNL1       -0.0206
      6 C          63.6782   85.6429   15.1408 C.ar    1  UNL1       -0.0071
      7 C          64.8239   87.6976   14.0382 C.3     1  UNL1        0.0312
      8 C          65.0973   89.1721   14.0092 C.3     1  UNL1        0.0360
      9 C          64.4983   90.0667   15.0538 C.ar    1  UNL1        0.0392
     10 C          63.6260   89.4866   16.1274 C.ar    1  UNL1        0.1187
     11 N          63.1777   90.6082   17.0168 N.ar    1  UNL1       -0.0772
     12 O          63.7730   91.8814   16.4929 O.2     1  UNL1       -0.3505
     13 C          64.5891   91.5468   15.2797 C.ar    1  UNL1        0.2097
     14 C          65.3606   92.5212   14.4399 C.ar    1  UNL1        0.2173
     15 O          66.3089   93.5661   14.9486 O.2     1  UNL1       -0.3502
     16 N          66.8537   94.3124   13.7669 N.ar    1  UNL1       -0.0769
     17 C          66.2420   93.7287   12.5279 C.ar    1  UNL1        0.1270
     18 C          65.3193   92.6216   12.9438 C.ar    1  UNL1        0.1323
     19 C          66.5067   94.1738   11.1201 C.ar    1  UNL1        0.0209
     20 C          65.8069   95.3818   10.5715 C.ar    1  UNL1        0.0016
     21 C          66.0716   95.8270    9.1637 C.ar    1  UNL1        0.0000
     22 C          67.0360   95.0642    8.3046 C.ar    1  UNL1        0.0000
     23 C          67.7358   93.8562    8.8533 C.ar    1  UNL1        0.0000
     24 C          67.4711   93.4110   10.2610 C.ar    1  UNL1        0.0016
     25 C          64.4992   91.7654   12.0250 C.3     1  UNL1        0.4231
     26 F          63.6792   90.9092   11.1060 F       1  UNL1       -0.1657
     27 F          65.7108   91.5155   11.1765 F       1  UNL1       -0.1657
     28 F          63.2876   92.0153   12.8733 F       1  UNL1       -0.1657
     29 C          62.5326   83.5882   16.2434 C.3     1  UNL1        0.0992
     30 C          62.8153   81.6342   13.2076 C.3     1  UNL1        0.0684
     31 C          61.7257   81.8914   14.2058 C.3     1  UNL1        0.0793
     32 N          62.6497   82.7788   14.9859 N.3     1  UNL1       -0.2682
     33 C          63.7394   82.5217   13.9877 C.3     1  UNL1        0.0793
     34 O          62.6215   79.3577   11.9708 O.co2   1  UNL1       -0.5491
     35 C          62.9325   80.8249   11.9501 C.2     1  UNL1        0.0527
     36 O          63.3607   81.4828   10.6719 O.co2   1  UNL1       -0.5491
@<TRIPOS>UNITY_ATOM_ATTR
34 1
charge -1
@<TRIPOS>BOND
     1    34    35   ar
     2    35    36   ar
     3    35    30    1
     4    30    31    1
     5    31    32    1
     6    32    29    1
     7    29     1    1
     8     1     2   ar
     9     2     3   ar
    10     3     4   ar
    11     4     5   ar
    12     5     6   ar
    13     5     7    1
    14     7     8    1
    15     8     9    1
    16     9    10   ar
    17    10    11   ar
    18    11    12   ar
    19    12    13   ar
    20    13    14    1
    21    14    15   ar
    22    15    16   ar
    23    16    17   ar
    24    17    19    1
    25    19    20   ar
    26    20    21   ar
    27    21    22   ar
    28    22    23   ar
    29    23    24   ar
    30    17    18   ar
    31    18    25    1
    32    25    26    1
    33    25    27    1
    34    25    28    1
    35    32    33    1
    36    33    30    1
    37     6     1   ar
    38    13     9   ar
    39    18    14   ar
    40    10     4    1
    41    24    19   ar
@<TRIPOS>MOLECULE
*****
 36 41 0 0 0
SMALL
GASTEIGER

@<TRIPOS>ATOM
      1 C          63.8840   90.9915   12.4316 C.ar    1  UNL1       -0.0065
      2 C          64.5193   90.7707   13.7724 C.ar    1  UNL1       -0.0029
      3 C          64.5282   89.4000   14.3814 C.ar    1  UNL1        0.0010
      4 C          63.9018   88.2501   13.6498 C.ar    1  UNL1        0.0167
      5 C          63.2665   88.4709   12.3090 C.ar    1  UNL1       -0.0206
      6 C          63.2576   89.8416   11.7000 C.ar    1  UNL1       -0.0071
      7 C          62.6402   87.3210   11.5773 C.3     1  UNL1        0.0312
      8 C          62.6490   85.9503   12.1864 C.3     1  UNL1        0.0360
      9 C          63.2843   85.7294   13.5272 C.ar    1  UNL1        0.0392
     10 C          63.9107   86.8793   14.2589 C.ar    1  UNL1        0.1187
     11 N          64.4580   86.3607   15.5556 N.ar    1  UNL1       -0.0772
     12 O          64.1698   84.8903   15.6253 O.2     1  UNL1       -0.3505
     13 C          63.4445   84.5001   14.3718 C.ar    1  UNL1        0.2097
     14 C          62.9637   83.1226   14.0237 C.ar    1  UNL1        0.2173
     15 O          62.0468   82.2730   14.8530 O.2     1  UNL1       -0.3502
     16 N          61.8318   80.9780   14.1271 N.ar    1  UNL1       -0.0769
     17 C          62.6159   81.0273   12.8492 C.ar    1  UNL1        0.1270
     18 C          63.3154   82.3527   12.7854 C.ar    1  UNL1        0.1323
     19 C          62.6877   79.9417   11.8166 C.ar    1  UNL1        0.0209
     20 C          62.8712   80.2936   10.3700 C.ar    1  UNL1        0.0016
     21 C          62.9431   79.2081    9.3374 C.ar    1  UNL1        0.0000
     22 C          62.8315   77.7706    9.7513 C.ar    1  UNL1        0.0000
     23 C          62.6480   77.4187   11.1978 C.ar    1  UNL1        0.0000
     24 C          62.5761   78.5043   12.2305 C.ar    1  UNL1        0.0016
     25 C          64.2096   82.8251   11.6776 C.3     1  UNL1        0.4231
     26 F          65.1038   83.2976   10.5698 F       1  UNL1       -0.1657
     27 F          63.0260   83.4250   10.9781 F       1  UNL1       -0.1657
     28 F          65.3932   82.2253   12.3771 F       1  UNL1       -0.1657
     29 C          63.8751   92.3623   11.8225 C.3     1  UNL1        0.0992
     30 C          66.8072   93.5929   10.0898 C.3     1  UNL1        0.0684
     31 C          65.4729   94.1703   10.4587 C.3     1  UNL1        0.0793
     32 N          65.0896   92.8720   11.1048 N.3     1  UNL1       -0.2682
     33 C          66.4239   92.2945   10.7359 C.3     1  UNL1        0.0793
     34 O          69.3478   93.4303    9.5712 O.co2   1  UNL1       -0.5491
     35 C          68.0218   94.1025    9.3721 C.2     1  UNL1        0.0527
     36 O          67.9103   95.2845    8.4553 O.co2   1  UNL1       -0.5491
@<TRIPOS>UNITY_ATOM_ATTR
34 1
charge -1
@<TRIPOS>BOND
     1    34    35   ar
     2    35    36   ar
     3    35    30    1
     4    30    31    1
     5    31    32    1
     6    32    29    1
     7    29     1    1
     8     1     2   ar
     9     2     3   ar
    10     3     4   ar
    11     4     5   ar
    12     5     6   ar
    13     5     7    1
    14     7     8    1
    15     8     9    1
    16     9    10   ar
    17    10    11   ar
    18    11    12   ar
    19    12    13   ar
    20    13    14    1
    21    14    15   ar
    22    15    16   ar
    23    16    17   ar
    24    17    19    1
    25    19    20   ar
    26    20    21   ar
    27    21    22   ar
    28    22    23   ar
    29    23    24   ar
    30    17    18   ar
    31    18    25    1
    32    25    26    1
    33    25    27    1
    34    25    28    1
    35    32    33    1
    36    33    30    1
    37     6     1   ar
    38    13     9   ar
    39    18    14   ar
    40    10     4    1
    41    24    19   ar
@<TRIPOS>MOLECULE
*****
 36 41 0 0 0
SMALL
GASTEIGER

@<TRIPOS>ATOM
      1 C          62.6322   83.4356   14.5002 C.ar    1  UNL1       -0.0065
      2 C          63.2147   84.1058   15.7091 C.ar    1  UNL1       -0.0029
      3 C          63.6560   85.5374   15.6333 C.ar    1  UNL1        0.0010
      4 C          63.5149   86.2987   14.3486 C.ar    1  UNL1        0.0167
      5 C          62.9324   85.6285   13.1397 C.ar    1  UNL1       -0.0206
      6 C          62.4910   84.1969   13.2155 C.ar    1  UNL1       -0.0071
      7 C          62.7912   86.3898   11.8550 C.3     1  UNL1        0.0312
      8 C          63.2325   87.8214   11.7792 C.3     1  UNL1        0.0360
      9 C          63.8150   88.4917   12.9882 C.ar    1  UNL1        0.0392
     10 C          63.9562   87.7304   14.2728 C.ar    1  UNL1        0.1187
     11 N          64.5620   88.6492   15.2920 N.ar    1  UNL1       -0.0772
     12 O          64.7952   89.9784   14.6372 O.2     1  UNL1       -0.3505
     13 C          64.3336   89.8811   13.2134 C.ar    1  UNL1        0.2097
     14 C          64.3819   90.9802   12.1937 C.ar    1  UNL1        0.2173
     15 O          63.4187   91.1745   11.0605 O.2     1  UNL1       -0.3502
     16 N          63.8435   92.3924   10.2946 N.ar    1  UNL1       -0.0769
     17 C          65.0694   92.9506   10.9547 C.ar    1  UNL1        0.1270
     18 C          65.4021   92.0779   12.1284 C.ar    1  UNL1        0.1323
     19 C          65.8290   94.1680   10.5177 C.ar    1  UNL1        0.0209
     20 C          65.6194   95.4757   11.2219 C.ar    1  UNL1        0.0016
     21 C          66.3790   96.6930   10.7849 C.ar    1  UNL1        0.0000
     22 C          67.3483   96.6027    9.6437 C.ar    1  UNL1        0.0000
     23 C          67.5580   95.2950    8.9395 C.ar    1  UNL1        0.0000
     24 C          66.7983   94.0776    9.3765 C.ar    1  UNL1        0.0016
     25 C          66.5530   92.2693   13.0711 C.3     1  UNL1        0.4231
     26 F          67.7039   92.4607   14.0138 F       1  UNL1       -0.1657
     27 F          67.4952   91.7479   12.0267 F       1  UNL1       -0.1657
     28 F          65.6109   92.7906   14.1154 F       1  UNL1       -0.1657
     29 C          62.1909   82.0039   14.5759 C.3     1  UNL1        0.0992
     30 C          62.6128   79.8253   11.7142 C.3     1  UNL1        0.0684
     31 C          62.9446   81.2568   12.0156 C.3     1  UNL1        0.0793
     32 N          62.3656   81.1015   13.3906 N.3     1  UNL1       -0.2682
     33 C          62.0338   79.6700   13.0893 C.3     1  UNL1        0.0793
     34 O          63.1280   77.4761   10.7314 O.co2   1  UNL1       -0.5491
     35 C          62.7875   78.9228   10.5289 C.2     1  UNL1        0.0527
     36 O          62.6217   79.4670    9.1410 O.co2   1  UNL1       -0.5491
@<TRIPOS>UNITY_ATOM_ATTR
34 1
charge -1
@<TRIPOS>BOND
     1    34    35   ar
     2    35    36   ar
     3    35    30    1
     4    30    31    1
     5    31    32    1
     6    32    29    1
     7    29     1    1
     8     1     2   ar
     9     2     3   ar
    10     3     4   ar
    11     4     5   ar
    12     5     6   ar
    13     5     7    1
    14     7     8    1
    15     8     9    1
    16     9    10   ar
    17    10    11   ar
    18    11    12   ar
    19    12    13   ar
    20    13    14    1
    21    14    15   ar
    22    15    16   ar
    23    16    17   ar
    24    17    19    1
    25    19    20   ar
    26    20    21   ar
    27    21    22   ar
    28    22    23   ar
    29    23    24   ar
    30    17    18   ar
    31    18    25    1
    32    25    26    1
    33    25    27    1
    34    25    28    1
    35    32    33    1
    36    33    30    1
    37     6     1   ar
    38    13     9   ar
    39    18    14   ar
    40    10     4    1
    41    24    19   ar
@<TRIPOS>MOLECULE
*****
 36 41 0 0 0
SMALL
GASTEIGER

@<TRIPOS>ATOM
      1 C          59.8109   91.3246    4.8030 C.ar    1  UNL1       -0.0065
      2 C          61.2388   90.8679    4.8523 C.ar    1  UNL1       -0.0029
      3 C          62.2213   91.3669    3.8347 C.ar    1  UNL1        0.0010
      4 C          61.7759   92.3226    2.7677 C.ar    1  UNL1        0.0167
      5 C          60.3480   92.7792    2.7184 C.ar    1  UNL1       -0.0206
      6 C          59.3655   92.2802    3.7361 C.ar    1  UNL1       -0.0071
      7 C          59.9026   93.7349    1.6515 C.3     1  UNL1        0.0312
      8 C          60.8851   94.2339    0.6339 C.3     1  UNL1        0.0360
      9 C          62.3131   93.7772    0.6831 C.ar    1  UNL1        0.0392
     10 C          62.7585   92.8215    1.7501 C.ar    1  UNL1        0.1187
     11 N          64.2198   92.5495    1.5480 N.ar    1  UNL1       -0.0772
     12 O          64.6774   93.3370    0.3563 O.2     1  UNL1       -0.3505
     13 C          63.4991   94.0957   -0.1783 C.ar    1  UNL1        0.2097
     14 C          63.5056   95.0122   -1.3657 C.ar    1  UNL1        0.2173
     15 O          64.4024   96.1990   -1.5587 O.2     1  UNL1       -0.3502
     16 N          64.0674   96.8230   -2.8810 N.ar    1  UNL1       -0.0769
     17 C          62.9635   96.0218   -3.5052 C.ar    1  UNL1        0.1270
     18 C          62.6163   94.9027   -2.5688 C.ar    1  UNL1        0.1323
     19 C          62.3199   96.2923   -4.8329 C.ar    1  UNL1        0.0209
     20 C          63.1520   96.3059   -6.0808 C.ar    1  UNL1        0.0016
     21 C          62.5084   96.5764   -7.4084 C.ar    1  UNL1        0.0000
     22 C          61.0327   96.8333   -7.4881 C.ar    1  UNL1        0.0000
     23 C          60.2006   96.8197   -6.2402 C.ar    1  UNL1        0.0000
     24 C          60.8442   96.5492   -4.9125 C.ar    1  UNL1        0.0016
     25 C          61.5646   93.8576   -2.7955 C.3     1  UNL1        0.4231
     26 F          60.5127   92.8125   -3.0223 F       1  UNL1       -0.1657
     27 F          60.5598   94.7143   -2.0836 F       1  UNL1       -0.1657
     28 F          62.5692   93.0009   -3.5075 F       1  UNL1       -0.1657
     29 C          58.8283   90.8256    5.8207 C.3     1  UNL1        0.0992
     30 C          59.8416   88.3361    8.2474 C.3     1  UNL1        0.0684
     31 C          60.0787   89.8071    8.0747 C.3     1  UNL1        0.0793
     32 N          59.2480   89.7944    6.8258 N.3     1  UNL1       -0.2682
     33 C          59.0109   88.3234    6.9985 C.3     1  UNL1        0.0793
     34 O          60.6796   85.9387    8.7957 O.co2   1  UNL1       -0.5491
     35 C          60.2614   87.3048    9.2526 C.2     1  UNL1        0.0527
     36 O          60.2629   87.6397   10.7147 O.co2   1  UNL1       -0.5491
@<TRIPOS>UNITY_ATOM_ATTR
34 1
charge -1
@<TRIPOS>BOND
     1    34    35   ar
     2    35    36   ar
     3    35    30    1
     4    30    31    1
     5    31    32    1
     6    32    29    1
     7    29     1    1
     8     1     2   ar
     9     2     3   ar
    10     3     4   ar
    11     4     5   ar
    12     5     6   ar
    13     5     7    1
    14     7     8    1
    15     8     9    1
    16     9    10   ar
    17    10    11   ar
    18    11    12   ar
    19    12    13   ar
    20    13    14    1
    21    14    15   ar
    22    15    16   ar
    23    16    17   ar
    24    17    19    1
    25    19    20   ar
    26    20    21   ar
    27    21    22   ar
    28    22    23   ar
    29    23    24   ar
    30    17    18   ar
    31    18    25    1
    32    25    26    1
    33    25    27    1
    34    25    28    1
    35    32    33    1
    36    33    30    1
    37     6     1   ar
    38    13     9   ar
    39    18    14   ar
    40    10     4    1
    41    24    19   ar
