@<TRIPOS>MOLECULE
*****
 41 46 0 0 0
SMALL
GASTEIGER

@<TRIPOS>ATOM
      1 C          60.8843   94.9868   -0.6286 C.3     1  UNL1        0.0603
      2 C          60.6550   94.1144    0.5700 C.ar    1  UNL1        0.0357
      3 C          59.2680   93.6545    0.9084 C.ar    1  UNL1        0.0022
      4 C          59.0387   92.7821    2.1069 C.ar    1  UNL1        0.0190
      5 C          60.1964   92.3696    2.9669 C.ar    1  UNL1        0.0844
      6 N          61.5835   92.8296    2.6284 N.ar    1  UNL1       -0.2116
      7 C          61.8127   93.7019    1.4299 C.ar    1  UNL1        0.2259
      8 O          63.1998   94.1619    1.0914 O.3     1  UNL1       -0.4345
      9 C          63.4291   95.0343   -0.1071 C.ar    1  UNL1        0.1707
     10 C          64.8162   95.4943   -0.4456 C.ar    1  UNL1        0.1741
     11 F          65.9739   95.0818    0.4143 F       1  UNL1       -0.2010
     12 C          65.0454   96.3666   -1.6441 C.ar    1  UNL1        0.0328
     13 C          63.8877   96.7791   -2.5040 C.ar    1  UNL1        0.0022
     14 C          62.5007   96.3192   -2.1656 C.ar    1  UNL1       -0.0008
     15 C          62.2714   95.4468   -0.9670 C.ar    1  UNL1        0.0190
     16 C          59.9671   91.4972    4.1654 C.ar    1  UNL1        0.0178
     17 C          61.1133   90.7490    4.7788 C.ar    1  UNL1        0.0016
     18 C          60.8840   89.8766    5.9773 C.ar    1  UNL1        0.0046
     19 C          59.5084   89.7524    6.5623 C.ar    1  UNL1        0.0536
     20 C          58.3621   90.5007    5.9488 C.ar    1  UNL1        0.0046
     21 C          58.5915   91.3730    4.7504 C.ar    1  UNL1        0.0016
     22 C          59.2790   88.8800    7.7608 C.2     1  UNL1        0.2492
     23 O          58.2751   87.7673    7.6974 O.2     1  UNL1       -0.2699
     24 N          60.0535   89.1204    9.0226 N.am    1  UNL1       -0.2709
     25 C          61.0575   90.2331    9.0860 C.3     1  UNL1        0.1258
     26 C          61.8320   90.4734   10.3479 C.3     1  UNL1        0.1637
     27 O          61.6026   89.6010   11.5463 O.3     1  UNL1       -0.3501
     28 C          60.5987   88.4883   11.4830 C.3     1  UNL1        0.1637
     29 C          59.8242   88.2480   10.2211 C.3     1  UNL1        0.1258
     30 C          59.9542   94.2053   -2.3675 C.3     1  UNL1        0.0098
     31 C          59.7266   95.3993   -1.4885 C.3     1  UNL1        0.0769
     32 C          59.4991   96.5933   -0.6095 C.3     1  UNL1        0.0098
     33 C          58.5689   95.8118   -2.3485 C.2     1  UNL1        0.2272
     34 O          58.7814   96.7689   -3.4836 O.2     1  UNL1       -0.2747
     35 N          57.1986   95.2670   -2.0732 N.am    1  UNL1       -0.2627
     36 H          57.0592   94.6388   -1.3282 H       1  UNL1        0.1568
     37 C          56.0409   95.6795   -2.9332 C.ar    1  UNL1        0.1881
     38 N          55.0832   96.7975   -2.6455 N.ar    1  UNL1       -0.1252
     39 N          54.0880   96.8553   -3.7664 N.ar    1  UNL1       -0.1374
     40 C          54.4306   95.7730   -4.7468 C.ar    1  UNL1        0.1605
     41 S          55.6376   95.0462   -4.2319 S.2     1  UNL1       -0.0283
@<TRIPOS>BOND
     1    30    31    1
     2    31    32    1
     3    31    33    1
     4    33    34    2
     5    33    35   am
     6    35    37    1
     7    37    38   ar
     8    38    39   ar
     9    39    40   ar
    10    40    41   ar
    11     1    31    1
    12     1     2    1
    13     2     3   ar
    14     3     4   ar
    15     4     5   ar
    16     5    16    1
    17    16    17   ar
    18    17    18   ar
    19    18    19   ar
    20    19    22    1
    21    22    23    2
    22    22    24   am
    23    24    25    1
    24    25    26    1
    25    26    27    1
    26    27    28    1
    27    28    29    1
    28    19    20   ar
    29    20    21   ar
    30     5     6   ar
    31     6     7   ar
    32     7     8    1
    33     8     9    1
    34     9    10   ar
    35    10    11    1
    36    10    12   ar
    37    12    13   ar
    38    13    14   ar
    39    14    15   ar
    40    41    37   ar
    41    15     1    1
    42     7     2   ar
    43    15     9   ar
    44    21    16   ar
    45    29    24    1
    46    35    36    1
@<TRIPOS>MOLECULE
*****
 41 46 0 0 0
SMALL
GASTEIGER

@<TRIPOS>ATOM
      1 C          60.8009   94.8366   -0.3280 C.3     1  UNL1        0.0603
      2 C          60.5942   93.9497    0.8639 C.ar    1  UNL1        0.0357
      3 C          59.2352   93.3835    1.1508 C.ar    1  UNL1        0.0022
      4 C          59.0286   92.4966    2.3427 C.ar    1  UNL1        0.0190
      5 C          60.1810   92.1759    3.2477 C.ar    1  UNL1        0.0844
      6 N          61.5401   92.7421    2.9608 N.ar    1  UNL1       -0.2116
      7 C          61.7467   93.6290    1.7689 C.ar    1  UNL1        0.2259
      8 O          63.1058   94.1952    1.4819 O.3     1  UNL1       -0.4345
      9 C          63.3124   95.0821    0.2900 C.ar    1  UNL1        0.1707
     10 C          64.6715   95.6484    0.0031 C.ar    1  UNL1        0.1741
     11 F          65.8239   95.3277    0.9081 F       1  UNL1       -0.2010
     12 C          64.8781   96.5353   -1.1888 C.ar    1  UNL1        0.0328
     13 C          63.7256   96.8560   -2.0938 C.ar    1  UNL1        0.0022
     14 C          62.3666   96.2898   -1.8069 C.ar    1  UNL1       -0.0008
     15 C          62.1599   95.4028   -0.6150 C.ar    1  UNL1        0.0190
     16 C          59.9744   91.2889    4.4397 C.ar    1  UNL1        0.0178
     17 C          61.1573   90.7629    5.1972 C.ar    1  UNL1        0.0016
     18 C          60.9506   89.8759    6.3892 C.ar    1  UNL1        0.0046
     19 C          59.5610   89.5151    6.8235 C.ar    1  UNL1        0.0536
     20 C          58.3780   90.0411    6.0659 C.ar    1  UNL1        0.0046
     21 C          58.5847   90.9280    4.8740 C.ar    1  UNL1        0.0016
     22 C          59.3543   88.6282    8.0154 C.2     1  UNL1        0.2492
     23 O          58.1938   87.6784    8.0513 O.2     1  UNL1       -0.2699
     24 N          60.3081   88.6910    9.1714 N.am    1  UNL1       -0.2709
     25 C          61.4686   89.6407    9.1354 C.3     1  UNL1        0.1258
     26 C          62.4224   89.7035   10.2915 C.3     1  UNL1        0.1637
     27 O          62.2157   88.8166   11.4834 O.3     1  UNL1       -0.3501
     28 C          61.0552   87.8669   11.5193 C.3     1  UNL1        0.1637
     29 C          60.1014   87.8041   10.3633 C.3     1  UNL1        0.1258
     30 C          59.2789   96.3141   -0.3525 C.3     1  UNL1        0.0098
     31 C          59.6484   95.1573   -1.2330 C.3     1  UNL1        0.0769
     32 C          60.0180   94.0005   -2.1135 C.3     1  UNL1        0.0098
     33 C          58.4960   95.4780   -2.1380 C.2     1  UNL1        0.2272
     34 O          57.0895   95.3706   -1.6281 O.2     1  UNL1       -0.2747
     35 N          58.7501   95.9062   -3.5530 N.am    1  UNL1       -0.2627
     36 H          59.6733   95.9767   -3.8878 H       1  UNL1        0.1568
     37 C          57.5977   96.2269   -4.4580 C.ar    1  UNL1        0.1881
     38 N          56.2108   96.5965   -4.0223 N.ar    1  UNL1       -0.1252
     39 N          55.3857   96.8323   -5.2526 N.ar    1  UNL1       -0.1374
     40 C          56.2627   96.6085   -6.4488 C.ar    1  UNL1        0.1605
     41 S          57.6298   96.2343   -5.9578 S.2     1  UNL1       -0.0283
@<TRIPOS>BOND
     1    30    31    1
     2    31    32    1
     3    31    33    1
     4    33    34    2
     5    33    35   am
     6    35    37    1
     7    37    38   ar
     8    38    39   ar
     9    39    40   ar
    10    40    41   ar
    11     1    31    1
    12     1     2    1
    13     2     3   ar
    14     3     4   ar
    15     4     5   ar
    16     5    16    1
    17    16    17   ar
    18    17    18   ar
    19    18    19   ar
    20    19    22    1
    21    22    23    2
    22    22    24   am
    23    24    25    1
    24    25    26    1
    25    26    27    1
    26    27    28    1
    27    28    29    1
    28    19    20   ar
    29    20    21   ar
    30     5     6   ar
    31     6     7   ar
    32     7     8    1
    33     8     9    1
    34     9    10   ar
    35    10    11    1
    36    10    12   ar
    37    12    13   ar
    38    13    14   ar
    39    14    15   ar
    40    41    37   ar
    41    15     1    1
    42     7     2   ar
    43    15     9   ar
    44    21    16   ar
    45    29    24    1
    46    35    36    1
@<TRIPOS>MOLECULE
*****
 41 46 0 0 0
SMALL
GASTEIGER

@<TRIPOS>ATOM
      1 C          63.1176   84.2569   12.4112 C.3     1  UNL1        0.0603
      2 C          62.4781   85.1817   11.4182 C.ar    1  UNL1        0.0357
      3 C          61.8905   84.6324   10.1522 C.ar    1  UNL1        0.0022
      4 C          61.2511   85.5572    9.1593 C.ar    1  UNL1        0.0190
      5 C          61.1994   87.0312    9.4324 C.ar    1  UNL1        0.0844
      6 N          61.7871   87.5805   10.6985 N.ar    1  UNL1       -0.2116
      7 C          62.4264   86.6557   11.6914 C.ar    1  UNL1        0.2259
      8 O          63.0142   87.2049   12.9575 O.3     1  UNL1       -0.4345
      9 C          63.6536   86.2802   13.9504 C.ar    1  UNL1        0.1707
     10 C          64.2413   86.8294   15.2165 C.ar    1  UNL1        0.1741
     11 F          64.1896   88.3034   15.4897 F       1  UNL1       -0.2010
     12 C          64.8807   85.9046   16.2095 C.ar    1  UNL1        0.0328
     13 C          64.9324   84.4306   15.9363 C.ar    1  UNL1        0.0022
     14 C          64.3447   83.8813   14.6703 C.ar    1  UNL1       -0.0008
     15 C          63.7053   84.8061   13.6773 C.ar    1  UNL1        0.0190
     16 C          60.5599   87.9560    8.4394 C.ar    1  UNL1        0.0178
     17 C          60.6478   89.4409    8.6327 C.ar    1  UNL1        0.0016
     18 C          60.0084   90.3657    7.6397 C.ar    1  UNL1        0.0046
     19 C          59.2811   89.8055    6.4534 C.ar    1  UNL1        0.0536
     20 C          59.1932   88.3205    6.2602 C.ar    1  UNL1        0.0046
     21 C          59.8326   87.3959    7.2531 C.ar    1  UNL1        0.0016
     22 C          58.6417   90.7302    5.4605 C.2     1  UNL1        0.2492
     23 O          57.1549   90.9291    5.4701 O.2     1  UNL1       -0.2699
     24 N          59.4890   91.4560    4.4579 N.am    1  UNL1       -0.2709
     25 C          60.9757   91.2572    4.4483 C.3     1  UNL1        0.1258
     26 C          61.8230   91.9831    3.4457 C.3     1  UNL1        0.1637
     27 O          61.1836   92.9078    2.4527 O.3     1  UNL1       -0.3501
     28 C          59.6969   93.1066    2.4623 C.3     1  UNL1        0.1637
     29 C          58.8496   92.3808    3.4649 C.3     1  UNL1        0.1258
     30 C          64.3192   82.9972   11.1991 C.3     1  UNL1        0.0098
     31 C          63.1693   82.7829   12.1381 C.3     1  UNL1        0.0769
     32 C          62.0193   82.5685   13.0771 C.3     1  UNL1        0.0098
     33 C          63.2210   81.3089   11.8650 C.2     1  UNL1        0.2272
     34 O          63.2864   80.3366   13.0053 O.2     1  UNL1       -0.2747
     35 N          63.2073   80.8071   10.4514 N.am    1  UNL1       -0.2627
     36 H          63.1644   81.4452    9.7029 H       1  UNL1        0.1568
     37 C          63.2590   79.3331   10.1783 C.ar    1  UNL1        0.1881
     38 N          64.0973   78.6589    9.1330 N.ar    1  UNL1       -0.1252
     39 N          63.8379   77.1836    9.2112 N.ar    1  UNL1       -0.1374
     40 C          62.8392   76.9459   10.3048 C.ar    1  UNL1        0.1605
     41 S          62.4813   78.2743   10.9026 S.2     1  UNL1       -0.0283
@<TRIPOS>BOND
     1    30    31    1
     2    31    32    1
     3    31    33    1
     4    33    34    2
     5    33    35   am
     6    35    37    1
     7    37    38   ar
     8    38    39   ar
     9    39    40   ar
    10    40    41   ar
    11     1    31    1
    12     1     2    1
    13     2     3   ar
    14     3     4   ar
    15     4     5   ar
    16     5    16    1
    17    16    17   ar
    18    17    18   ar
    19    18    19   ar
    20    19    22    1
    21    22    23    2
    22    22    24   am
    23    24    25    1
    24    25    26    1
    25    26    27    1
    26    27    28    1
    27    28    29    1
    28    19    20   ar
    29    20    21   ar
    30     5     6   ar
    31     6     7   ar
    32     7     8    1
    33     8     9    1
    34     9    10   ar
    35    10    11    1
    36    10    12   ar
    37    12    13   ar
    38    13    14   ar
    39    14    15   ar
    40    41    37   ar
    41    15     1    1
    42     7     2   ar
    43    15     9   ar
    44    21    16   ar
    45    29    24    1
    46    35    36    1
