@<TRIPOS>MOLECULE
*****
 32 35 0 0 0
SMALL
GASTEIGER

@<TRIPOS>ATOM
      1 C          58.7084   94.8056   -1.4678 C.ar    1  UNL1        0.0277
      2 S          58.4124   93.7426   -0.4517 S.2     1  UNL1       -0.0677
      3 C          59.6302   93.5701    0.4069 C.ar    1  UNL1        0.1200
      4 C          60.6788   94.5265   -0.0785 C.ar    1  UNL1        0.0887
      5 C          60.1091   95.2901   -1.2371 C.ar    1  UNL1       -0.0042
      6 C          60.8161   96.3518   -2.0264 C.3     1  UNL1        0.0323
      7 C          55.8893   96.2819   -4.6494 C.ar    1  UNL1        0.1724
      8 C          57.2671   95.8216   -5.0231 C.ar    1  UNL1        0.0401
      9 C          58.2068   95.3294   -3.9626 C.ar    1  UNL1        0.0038
     10 C          57.7687   95.2977   -2.5284 C.ar    1  UNL1        0.0090
     11 C          56.3909   95.7581   -2.1547 C.ar    1  UNL1        0.0405
     12 C          55.4512   96.2502   -3.2152 C.ar    1  UNL1        0.1724
     13 C          54.2608   95.7956   -6.6145 C.3     1  UNL1        0.2526
     14 O          54.9495   96.7741   -5.7100 O.3     1  UNL1       -0.4684
     15 O          54.0733   96.7106   -2.8415 O.3     1  UNL1       -0.4684
     16 C          53.4156   96.1799   -1.6023 C.3     1  UNL1        0.2526
     17 N          59.7740   92.6098    1.5502 N.2     1  UNL1       -0.2366
     18 C          59.1706   92.9361    2.8841 C.2     1  UNL1        0.0994
     19 C          59.3144   91.9758    4.0274 C.ar    1  UNL1        0.0192
     20 C          58.0989   91.5094    4.7725 C.ar    1  UNL1        0.0015
     21 C          58.2427   90.5491    5.9158 C.ar    1  UNL1        0.0000
     22 C          59.6019   90.0552    6.3140 C.ar    1  UNL1        0.0000
     23 C          60.8174   90.5216    5.5690 C.ar    1  UNL1        0.0000
     24 C          60.6736   91.4820    4.4256 C.ar    1  UNL1        0.0015
     25 C          59.7458   89.0949    7.4573 C.ar    1  UNL1        0.0000
     26 C          59.2726   87.6790    7.3115 C.ar    1  UNL1        0.0000
     27 C          59.4164   86.7186    8.4548 C.ar    1  UNL1        0.0000
     28 C          60.0334   87.1742    9.7439 C.ar    1  UNL1        0.0000
     29 C          60.5066   88.5902    9.8896 C.ar    1  UNL1        0.0000
     30 C          60.3628   89.5505    8.7464 C.ar    1  UNL1        0.0000
     31 C          62.0555   94.6906    0.4942 C.1     1  UNL1        0.1022
     32 N          63.4321   94.8547    1.0669 N.1     1  UNL1       -0.1908
@<TRIPOS>BOND
     1    13    14    1
     2    14     7    1
     3     7     8   ar
     4     8     9   ar
     5     9    10   ar
     6    10     1    1
     7     1     2   ar
     8     2     3   ar
     9     3    17    1
    10    17    18    2
    11    18    19    1
    12    19    20   ar
    13    20    21   ar
    14    21    22   ar
    15    22    25    1
    16    25    26   ar
    17    26    27   ar
    18    27    28   ar
    19    28    29   ar
    20    29    30   ar
    21    22    23   ar
    22    23    24   ar
    23     3     4   ar
    24     4    31    1
    25    31    32    3
    26     4     5   ar
    27     5     6    1
    28    10    11   ar
    29    11    12   ar
    30    12    15    1
    31    15    16    1
    32    12     7   ar
    33     5     1   ar
    34    24    19   ar
    35    30    25   ar
@<TRIPOS>MOLECULE
*****
 32 35 0 0 0
SMALL
GASTEIGER

@<TRIPOS>ATOM
      1 C          59.4519   94.8844   -1.5699 C.ar    1  UNL1        0.0277
      2 S          59.1337   93.8111   -0.5715 S.2     1  UNL1       -0.0677
      3 C          60.2538   93.7578    0.4247 C.ar    1  UNL1        0.1200
      4 C          61.2643   94.7982    0.0421 C.ar    1  UNL1        0.0887
      5 C          60.7687   95.4945   -1.1906 C.ar    1  UNL1       -0.0042
      6 C          61.4673   96.6058   -1.9166 C.3     1  UNL1        0.0323
      7 C          56.9036   96.0666   -5.0854 C.ar    1  UNL1        0.1724
      8 C          56.5975   96.6093   -3.7209 C.ar    1  UNL1        0.0401
      9 C          57.4469   96.2152   -2.5491 C.ar    1  UNL1        0.0038
     10 C          58.6025   95.2785   -2.7417 C.ar    1  UNL1        0.0090
     11 C          58.9086   94.7358   -4.1061 C.ar    1  UNL1        0.0405
     12 C          58.0592   95.1298   -5.2780 C.ar    1  UNL1        0.1724
     13 C          54.7995   95.6981   -6.5642 C.3     1  UNL1        0.2526
     14 O          56.0542   96.4606   -6.2572 O.3     1  UNL1       -0.4684
     15 O          58.3653   94.5871   -6.6425 O.3     1  UNL1       -0.4684
     16 C          57.9587   93.1888   -7.0020 C.3     1  UNL1        0.2526
     17 N          60.3471   92.8275    1.5976 N.2     1  UNL1       -0.2366
     18 C          59.3581   92.9347    2.7203 C.2     1  UNL1        0.0994
     19 C          59.4514   92.0043    3.8933 C.ar    1  UNL1        0.0192
     20 C          60.7881   91.4872    4.3360 C.ar    1  UNL1        0.0015
     21 C          60.8813   90.5569    5.5089 C.ar    1  UNL1        0.0000
     22 C          59.6379   90.1436    6.2391 C.ar    1  UNL1        0.0000
     23 C          58.3013   90.6607    5.7964 C.ar    1  UNL1        0.0000
     24 C          58.2080   91.5911    4.6234 C.ar    1  UNL1        0.0015
     25 C          59.7312   89.2132    7.4120 C.ar    1  UNL1        0.0000
     26 C          59.2979   87.7840    7.2719 C.ar    1  UNL1        0.0000
     27 C          59.3911   86.8536    8.4449 C.ar    1  UNL1        0.0000
     28 C          59.9176   87.3524    9.7578 C.ar    1  UNL1        0.0000
     29 C          60.3508   88.7817    9.8979 C.ar    1  UNL1        0.0000
     30 C          60.2576   89.7121    8.7251 C.ar    1  UNL1        0.0000
     31 C          62.5455   95.0910    0.7652 C.1     1  UNL1        0.1022
     32 N          63.8267   95.3838    1.4883 N.1     1  UNL1       -0.1908
@<TRIPOS>BOND
     1    13    14    1
     2    14     7    1
     3     7     8   ar
     4     8     9   ar
     5     9    10   ar
     6    10     1    1
     7     1     2   ar
     8     2     3   ar
     9     3    17    1
    10    17    18    2
    11    18    19    1
    12    19    20   ar
    13    20    21   ar
    14    21    22   ar
    15    22    25    1
    16    25    26   ar
    17    26    27   ar
    18    27    28   ar
    19    28    29   ar
    20    29    30   ar
    21    22    23   ar
    22    23    24   ar
    23     3     4   ar
    24     4    31    1
    25    31    32    3
    26     4     5   ar
    27     5     6    1
    28    10    11   ar
    29    11    12   ar
    30    12    15    1
    31    15    16    1
    32    12     7   ar
    33     5     1   ar
    34    24    19   ar
    35    30    25   ar
@<TRIPOS>MOLECULE
*****
 32 35 0 0 0
SMALL
GASTEIGER

@<TRIPOS>ATOM
      1 C          64.8158   90.6329   14.2097 C.ar    1  UNL1        0.0277
      2 S          64.8559   89.3169   13.4910 S.2     1  UNL1       -0.0677
      3 C          64.2409   88.2814   14.3852 C.ar    1  UNL1        0.1200
      4 C          63.8208   88.9575   15.6566 C.ar    1  UNL1        0.0887
      5 C          64.1761   90.4107   15.5481 C.ar    1  UNL1       -0.0042
      6 C          63.9342   91.4580   16.5944 C.3     1  UNL1        0.0323
      7 C          66.3460   94.5582   12.6282 C.ar    1  UNL1        0.1724
      8 C          66.4847   94.2315   14.0856 C.ar    1  UNL1        0.0401
      9 C          65.9746   92.9230   14.6127 C.ar    1  UNL1        0.0038
     10 C          65.3259   91.9413   13.6825 C.ar    1  UNL1        0.0090
     11 C          65.1872   92.2681   12.2252 C.ar    1  UNL1        0.0405
     12 C          65.6972   93.5765   11.6980 C.ar    1  UNL1        0.1724
     13 C          65.9023   96.8559   11.4998 C.3     1  UNL1        0.2526
     14 O          66.8560   95.8666   12.1011 O.3     1  UNL1       -0.4684
     15 O          65.5585   93.9032   10.2405 O.3     1  UNL1       -0.4684
     16 C          66.7659   93.8897    9.3507 C.3     1  UNL1        0.2526
     17 N          64.0752   86.8256   14.0643 N.2     1  UNL1       -0.2366
     18 C          63.4996   86.4096   12.7431 C.2     1  UNL1        0.0994
     19 C          63.3339   84.9537   12.4223 C.ar    1  UNL1        0.0192
     20 C          63.4788   84.4763   11.0075 C.ar    1  UNL1        0.0015
     21 C          63.3131   83.0204   10.6867 C.ar    1  UNL1        0.0000
     22 C          63.0025   82.0420   11.7804 C.ar    1  UNL1        0.0000
     23 C          62.8576   82.5194   13.1950 C.ar    1  UNL1        0.0000
     24 C          63.0233   83.9753   13.5159 C.ar    1  UNL1        0.0015
     25 C          62.8368   80.5861   11.4595 C.ar    1  UNL1        0.0000
     26 C          62.5743   79.6008   12.5596 C.ar    1  UNL1        0.0000
     27 C          62.4086   78.1449   12.2388 C.ar    1  UNL1        0.0000
     28 C          62.5054   77.6743   10.8179 C.ar    1  UNL1        0.0000
     29 C          62.7678   78.6597    9.7177 C.ar    1  UNL1        0.0000
     30 C          62.9335   80.1155   10.0385 C.ar    1  UNL1        0.0000
     31 C          63.1613   88.2963   16.8304 C.1     1  UNL1        0.1022
     32 N          62.5017   87.6352   18.0042 N.1     1  UNL1       -0.1908
@<TRIPOS>BOND
     1    13    14    1
     2    14     7    1
     3     7     8   ar
     4     8     9   ar
     5     9    10   ar
     6    10     1    1
     7     1     2   ar
     8     2     3   ar
     9     3    17    1
    10    17    18    2
    11    18    19    1
    12    19    20   ar
    13    20    21   ar
    14    21    22   ar
    15    22    25    1
    16    25    26   ar
    17    26    27   ar
    18    27    28   ar
    19    28    29   ar
    20    29    30   ar
    21    22    23   ar
    22    23    24   ar
    23     3     4   ar
    24     4    31    1
    25    31    32    3
    26     4     5   ar
    27     5     6    1
    28    10    11   ar
    29    11    12   ar
    30    12    15    1
    31    15    16    1
    32    12     7   ar
    33     5     1   ar
    34    24    19   ar
    35    30    25   ar
@<TRIPOS>MOLECULE
*****
 32 35 0 0 0
SMALL
GASTEIGER

@<TRIPOS>ATOM
      1 C          65.2587   91.9429   12.6718 C.ar    1  UNL1        0.0277
      2 S          64.7958   90.6085   12.1666 S.2     1  UNL1       -0.0677
      3 C          64.2488   89.8364   13.3305 C.ar    1  UNL1        0.1200
      4 C          64.3737   90.6936   14.5551 C.ar    1  UNL1        0.0887
      5 C          64.9978   91.9954   14.1480 C.ar    1  UNL1       -0.0042
      6 C          65.3068   93.1475   15.0575 C.3     1  UNL1        0.0323
      7 C          67.1057   95.2138   10.1941 C.ar    1  UNL1        0.1724
      8 C          66.3667   95.5539   11.4543 C.ar    1  UNL1        0.0401
      9 C          65.7510   94.4636   12.2802 C.ar    1  UNL1        0.0038
     10 C          65.8744   93.0332   11.8459 C.ar    1  UNL1        0.0090
     11 C          66.6134   92.6931   10.5857 C.ar    1  UNL1        0.0405
     12 C          67.2291   93.7834    9.7598 C.ar    1  UNL1        0.1724
     13 C          66.9836   96.8559    8.1845 C.3     1  UNL1        0.2526
     14 O          67.7214   96.3041    9.3682 O.3     1  UNL1       -0.4684
     15 O          67.9681   93.4432    8.4995 O.3     1  UNL1       -0.4684
     16 C          68.9719   92.3286    8.4963 C.3     1  UNL1        0.2526
     17 N          63.6773   88.4505   13.2788 N.2     1  UNL1       -0.2366
     18 C          64.3534   87.3326   14.0157 C.2     1  UNL1        0.0994
     19 C          63.7820   85.9467   13.9641 C.ar    1  UNL1        0.0192
     20 C          63.7125   85.1170   15.2120 C.ar    1  UNL1        0.0015
     21 C          63.1411   83.7311   15.1603 C.ar    1  UNL1        0.0000
     22 C          62.6390   83.1748   13.8609 C.ar    1  UNL1        0.0000
     23 C          62.7085   84.0044   12.6131 C.ar    1  UNL1        0.0000
     24 C          63.2800   85.3904   12.6647 C.ar    1  UNL1        0.0015
     25 C          62.0676   81.7889   13.8092 C.ar    1  UNL1        0.0000
     26 C          62.9051   80.6506   13.3063 C.ar    1  UNL1        0.0000
     27 C          62.3336   79.2646   13.2546 C.ar    1  UNL1        0.0000
     28 C          60.9248   79.0170   13.7058 C.ar    1  UNL1        0.0000
     29 C          60.0873   80.1554   14.2088 C.ar    1  UNL1        0.0000
     30 C          60.6586   81.5413   14.2605 C.ar    1  UNL1        0.0000
     31 C          63.9490   90.3153   15.9431 C.1     1  UNL1        0.1022
     32 N          63.5243   89.9371   17.3311 N.1     1  UNL1       -0.1908
@<TRIPOS>BOND
     1    13    14    1
     2    14     7    1
     3     7     8   ar
     4     8     9   ar
     5     9    10   ar
     6    10     1    1
     7     1     2   ar
     8     2     3   ar
     9     3    17    1
    10    17    18    2
    11    18    19    1
    12    19    20   ar
    13    20    21   ar
    14    21    22   ar
    15    22    25    1
    16    25    26   ar
    17    26    27   ar
    18    27    28   ar
    19    28    29   ar
    20    29    30   ar
    21    22    23   ar
    22    23    24   ar
    23     3     4   ar
    24     4    31    1
    25    31    32    3
    26     4     5   ar
    27     5     6    1
    28    10    11   ar
    29    11    12   ar
    30    12    15    1
    31    15    16    1
    32    12     7   ar
    33     5     1   ar
    34    24    19   ar
    35    30    25   ar
@<TRIPOS>MOLECULE
*****
 32 35 0 0 0
SMALL
GASTEIGER

@<TRIPOS>ATOM
      1 C          64.5722   89.9082   14.4853 C.ar    1  UNL1        0.0277
      2 S          64.6593   88.6214   13.7195 S.2     1  UNL1       -0.0677
      3 C          64.0120   87.5474   14.5425 C.ar    1  UNL1        0.1200
      4 C          63.5248   88.1704   15.8171 C.ar    1  UNL1        0.0887
      5 C          63.8710   89.6295   15.7817 C.ar    1  UNL1       -0.0042
      6 C          63.5690   90.6335   16.8544 C.3     1  UNL1        0.0323
      7 C          66.1391   93.9034   13.1314 C.ar    1  UNL1        0.1724
      8 C          65.2100   93.1240   12.2488 C.ar    1  UNL1        0.0401
      9 C          64.6876   91.7922   12.7001 C.ar    1  UNL1        0.0038
     10 C          65.0945   91.2400   14.0340 C.ar    1  UNL1        0.0090
     11 C          66.0236   92.0194   14.9166 C.ar    1  UNL1        0.0405
     12 C          66.5459   93.3512   14.4653 C.ar    1  UNL1        0.1724
     13 C          66.1707   95.8376   11.3970 C.3     1  UNL1        0.2526
     14 O          66.6614   95.2352   12.6801 O.3     1  UNL1       -0.4684
     15 O          67.4751   94.1306   15.3481 O.3     1  UNL1       -0.4684
     16 C          68.8031   93.5513   15.7363 C.3     1  UNL1        0.2526
     17 N          63.8759   86.1038   14.1585 N.2     1  UNL1       -0.2366
     18 C          63.4895   85.7338   12.7571 C.2     1  UNL1        0.0994
     19 C          63.3534   84.2902   12.3731 C.ar    1  UNL1        0.0192
     20 C          63.8653   83.8159   11.0452 C.ar    1  UNL1        0.0015
     21 C          63.7292   82.3723   10.6611 C.ar    1  UNL1        0.0000
     22 C          63.0811   81.4030   11.6048 C.ar    1  UNL1        0.0000
     23 C          62.5692   81.8773   12.9326 C.ar    1  UNL1        0.0000
     24 C          62.7054   83.3210   13.3167 C.ar    1  UNL1        0.0015
     25 C          62.9450   79.9594   11.2207 C.ar    1  UNL1        0.0000
     26 C          63.1152   79.5450    9.7893 C.ar    1  UNL1        0.0000
     27 C          62.9791   78.1013    9.4051 C.ar    1  UNL1        0.0000
     28 C          62.6727   77.0723   10.4525 C.ar    1  UNL1        0.0000
     29 C          62.5025   77.4868   11.8840 C.ar    1  UNL1        0.0000
     30 C          62.6386   78.9303   12.2682 C.ar    1  UNL1        0.0000
     31 C          62.8158   87.4592   16.9314 C.1     1  UNL1        0.1022
     32 N          62.1069   86.7481   18.0456 N.1     1  UNL1       -0.1908
@<TRIPOS>BOND
     1    13    14    1
     2    14     7    1
     3     7     8   ar
     4     8     9   ar
     5     9    10   ar
     6    10     1    1
     7     1     2   ar
     8     2     3   ar
     9     3    17    1
    10    17    18    2
    11    18    19    1
    12    19    20   ar
    13    20    21   ar
    14    21    22   ar
    15    22    25    1
    16    25    26   ar
    17    26    27   ar
    18    27    28   ar
    19    28    29   ar
    20    29    30   ar
    21    22    23   ar
    22    23    24   ar
    23     3     4   ar
    24     4    31    1
    25    31    32    3
    26     4     5   ar
    27     5     6    1
    28    10    11   ar
    29    11    12   ar
    30    12    15    1
    31    15    16    1
    32    12     7   ar
    33     5     1   ar
    34    24    19   ar
    35    30    25   ar
@<TRIPOS>MOLECULE
*****
 32 35 0 0 0
SMALL
GASTEIGER

@<TRIPOS>ATOM
      1 C          61.4452   87.1734   10.5949 C.ar    1  UNL1        0.0277
      2 S          61.6029   87.7911    9.2371 S.2     1  UNL1       -0.0677
      3 C          60.8565   89.0922    9.2302 C.ar    1  UNL1        0.1200
      4 C          60.2374   89.2786   10.5837 C.ar    1  UNL1        0.0887
      5 C          60.6012   88.0927   11.4271 C.ar    1  UNL1       -0.0042
      6 C          60.1928   87.8660   12.8525 C.3     1  UNL1        0.0323
      7 C          63.1962   83.2510   11.9360 C.ar    1  UNL1        0.1724
      8 C          63.2007   83.6160   10.4811 C.ar    1  UNL1        0.0401
      9 C          62.6170   84.9235   10.0341 C.ar    1  UNL1        0.0038
     10 C          62.0288   85.8659   11.0419 C.ar    1  UNL1        0.0090
     11 C          62.0244   85.5009   12.4968 C.ar    1  UNL1        0.0405
     12 C          62.6080   84.1935   12.9438 C.ar    1  UNL1        0.1724
     13 C          62.8785   80.7815   12.6778 C.3     1  UNL1        0.2526
     14 O          63.7799   81.9435   12.3830 O.3     1  UNL1       -0.4684
     15 O          62.6035   83.8285   14.3988 O.3     1  UNL1       -0.4684
     16 C          63.8227   84.0741   15.2374 C.3     1  UNL1        0.2526
     17 N          60.7482   90.0404    8.0730 N.2     1  UNL1       -0.2366
     18 C          60.0724   89.6043    6.8069 C.2     1  UNL1        0.0994
     19 C          59.9641   90.5525    5.6496 C.ar    1  UNL1        0.0192
     20 C          61.1757   90.8698    4.8241 C.ar    1  UNL1        0.0015
     21 C          61.0674   91.8180    3.6668 C.ar    1  UNL1        0.0000
     22 C          59.7476   92.4489    3.3351 C.ar    1  UNL1        0.0000
     23 C          58.5360   92.1316    4.1606 C.ar    1  UNL1        0.0000
     24 C          58.6443   91.1833    5.3179 C.ar    1  UNL1        0.0015
     25 C          59.6393   93.3971    2.1778 C.ar    1  UNL1        0.0000
     26 C          58.9319   92.9734    0.9248 C.ar    1  UNL1        0.0000
     27 C          58.8236   93.9216   -0.2325 C.ar    1  UNL1        0.0000
     28 C          59.4226   95.2933   -0.1367 C.ar    1  UNL1        0.0000
     29 C          60.1300   95.7170    1.1164 C.ar    1  UNL1        0.0000
     30 C          60.2384   94.7689    2.2736 C.ar    1  UNL1        0.0000
     31 C          59.4013   90.4459   11.0177 C.1     1  UNL1        0.1022
     32 N          58.5652   91.6132   11.4516 N.1     1  UNL1       -0.1908
@<TRIPOS>BOND
     1    13    14    1
     2    14     7    1
     3     7     8   ar
     4     8     9   ar
     5     9    10   ar
     6    10     1    1
     7     1     2   ar
     8     2     3   ar
     9     3    17    1
    10    17    18    2
    11    18    19    1
    12    19    20   ar
    13    20    21   ar
    14    21    22   ar
    15    22    25    1
    16    25    26   ar
    17    26    27   ar
    18    27    28   ar
    19    28    29   ar
    20    29    30   ar
    21    22    23   ar
    22    23    24   ar
    23     3     4   ar
    24     4    31    1
    25    31    32    3
    26     4     5   ar
    27     5     6    1
    28    10    11   ar
    29    11    12   ar
    30    12    15    1
    31    15    16    1
    32    12     7   ar
    33     5     1   ar
    34    24    19   ar
    35    30    25   ar
@<TRIPOS>MOLECULE
*****
 32 35 0 0 0
SMALL
GASTEIGER

@<TRIPOS>ATOM
      1 C          61.7365   89.3160   10.2379 C.ar    1  UNL1        0.0277
      2 S          61.5655   90.2414    9.0697 S.2     1  UNL1       -0.0677
      3 C          60.6126   89.5995    8.1054 C.ar    1  UNL1        0.1200
      4 C          60.1945   88.2774    8.6776 C.ar    1  UNL1        0.0887
      5 C          60.8891   88.1022    9.9955 C.ar    1  UNL1       -0.0042
      6 C          60.7592   86.9207   10.9104 C.3     1  UNL1        0.0323
      7 C          64.3350   90.0520   13.8373 C.ar    1  UNL1        0.1724
      8 C          63.9238   91.1987   12.9621 C.ar    1  UNL1        0.0401
      9 C          63.0576   90.9533   11.7622 C.ar    1  UNL1        0.0038
     10 C          62.6026   89.5614   11.4377 C.ar    1  UNL1        0.0090
     11 C          63.0138   88.4147   12.3129 C.ar    1  UNL1        0.0405
     12 C          63.8800   88.6601   13.5127 C.ar    1  UNL1        0.1724
     13 C          66.2395   91.3793   15.0039 C.3     1  UNL1        0.2526
     14 O          65.2011   90.2974   15.0371 O.3     1  UNL1       -0.4684
     15 O          64.2912   87.5134   14.3880 O.3     1  UNL1       -0.4684
     16 C          63.9496   86.1075   13.9920 C.3     1  UNL1        0.2526
     17 N          60.1576   90.1781    6.7985 N.2     1  UNL1       -0.2366
     18 C          61.1369   90.8872    5.9107 C.2     1  UNL1        0.0994
     19 C          60.6819   91.4658    4.6037 C.ar    1  UNL1        0.0192
     20 C          59.2311   91.7796    4.3870 C.ar    1  UNL1        0.0015
     21 C          58.7761   92.3582    3.0801 C.ar    1  UNL1        0.0000
     22 C          59.7718   92.6231    1.9899 C.ar    1  UNL1        0.0000
     23 C          61.2225   92.3093    2.2066 C.ar    1  UNL1        0.0000
     24 C          61.6776   91.7306    3.5136 C.ar    1  UNL1        0.0015
     25 C          59.3168   93.2017    0.6829 C.ar    1  UNL1        0.0000
     26 C          59.0579   92.2995   -0.4871 C.ar    1  UNL1        0.0000
     27 C          58.6028   92.8781   -1.7942 C.ar    1  UNL1        0.0000
     28 C          58.4068   94.3588   -1.9311 C.ar    1  UNL1        0.0000
     29 C          58.6658   95.2611   -0.7610 C.ar    1  UNL1        0.0000
     30 C          59.1208   94.6825    0.5459 C.ar    1  UNL1        0.0000
     31 C          59.2481   87.3018    8.0432 C.1     1  UNL1        0.1022
     32 N          58.3016   86.3262    7.4089 N.1     1  UNL1       -0.1908
@<TRIPOS>BOND
     1    13    14    1
     2    14     7    1
     3     7     8   ar
     4     8     9   ar
     5     9    10   ar
     6    10     1    1
     7     1     2   ar
     8     2     3   ar
     9     3    17    1
    10    17    18    2
    11    18    19    1
    12    19    20   ar
    13    20    21   ar
    14    21    22   ar
    15    22    25    1
    16    25    26   ar
    17    26    27   ar
    18    27    28   ar
    19    28    29   ar
    20    29    30   ar
    21    22    23   ar
    22    23    24   ar
    23     3     4   ar
    24     4    31    1
    25    31    32    3
    26     4     5   ar
    27     5     6    1
    28    10    11   ar
    29    11    12   ar
    30    12    15    1
    31    15    16    1
    32    12     7   ar
    33     5     1   ar
    34    24    19   ar
    35    30    25   ar
@<TRIPOS>MOLECULE
*****
 32 35 0 0 0
SMALL
GASTEIGER

@<TRIPOS>ATOM
      1 C          61.8081   89.3876   10.2483 C.ar    1  UNL1        0.0277
      2 S          61.5828   90.3230    9.0975 S.2     1  UNL1       -0.0677
      3 C          60.6149   89.6726    8.1541 C.ar    1  UNL1        0.1200
      4 C          60.2420   88.3351    8.7217 C.ar    1  UNL1        0.0887
      5 C          60.9795   88.1590   10.0160 C.ar    1  UNL1       -0.0042
      6 C          60.9019   86.9641   10.9194 C.3     1  UNL1        0.0323
      7 C          64.4978   90.1357   13.7776 C.ar    1  UNL1        0.1724
      8 C          63.8737   88.7857   13.5831 C.ar    1  UNL1        0.0401
      9 C          62.9771   88.5363   12.4067 C.ar    1  UNL1        0.0038
     10 C          62.7047   89.6370   11.4247 C.ar    1  UNL1        0.0090
     11 C          63.3288   90.9870   11.6192 C.ar    1  UNL1        0.0405
     12 C          64.2254   91.2363   12.7956 C.ar    1  UNL1        0.1724
     13 C          66.6965   91.1052   14.7653 C.3     1  UNL1        0.2526
     14 O          65.3944   90.3851   14.9540 O.3     1  UNL1       -0.4684
     15 O          64.8495   92.5865   12.9901 O.3     1  UNL1       -0.4684
     16 C          65.6465   93.2107   11.8833 C.3     1  UNL1        0.2526
     17 N          60.1087   90.2570    6.8687 N.2     1  UNL1       -0.2366
     18 C          61.0599   90.9336    5.9266 C.2     1  UNL1        0.0994
     19 C          60.5537   91.5180    4.6412 C.ar    1  UNL1        0.0192
     20 C          61.5210   91.9139    3.5651 C.ar    1  UNL1        0.0015
     21 C          61.0149   92.4983    2.2797 C.ar    1  UNL1        0.0000
     22 C          59.5416   92.6868    2.0703 C.ar    1  UNL1        0.0000
     23 C          58.5744   92.2910    3.1464 C.ar    1  UNL1        0.0000
     24 C          59.0805   91.7065    4.4318 C.ar    1  UNL1        0.0015
     25 C          59.0354   93.2712    0.7849 C.ar    1  UNL1        0.0000
     26 C          59.2731   94.7194    0.4746 C.ar    1  UNL1        0.0000
     27 C          58.7669   95.3039   -0.8109 C.ar    1  UNL1        0.0000
     28 C          58.0232   94.4402   -1.7859 C.ar    1  UNL1        0.0000
     29 C          57.7855   92.9920   -1.4755 C.ar    1  UNL1        0.0000
     30 C          58.2916   92.4075   -0.1901 C.ar    1  UNL1        0.0000
     31 C          59.2975   87.3473    8.1037 C.1     1  UNL1        0.1022
     32 N          58.3530   86.3594    7.4856 N.1     1  UNL1       -0.1908
@<TRIPOS>BOND
     1    13    14    1
     2    14     7    1
     3     7     8   ar
     4     8     9   ar
     5     9    10   ar
     6    10     1    1
     7     1     2   ar
     8     2     3   ar
     9     3    17    1
    10    17    18    2
    11    18    19    1
    12    19    20   ar
    13    20    21   ar
    14    21    22   ar
    15    22    25    1
    16    25    26   ar
    17    26    27   ar
    18    27    28   ar
    19    28    29   ar
    20    29    30   ar
    21    22    23   ar
    22    23    24   ar
    23     3     4   ar
    24     4    31    1
    25    31    32    3
    26     4     5   ar
    27     5     6    1
    28    10    11   ar
    29    11    12   ar
    30    12    15    1
    31    15    16    1
    32    12     7   ar
    33     5     1   ar
    34    24    19   ar
    35    30    25   ar
