@<TRIPOS>MOLECULE
*****
 32 36 0 0 0
SMALL
GASTEIGER

@<TRIPOS>ATOM
      1 C          62.7552   86.8184   11.8861 C.2     1  UNL1        0.2506
      2 O          63.5188   87.4262   13.0251 O.2     1  UNL1       -0.2699
      3 N          61.8035   87.6592   11.0879 N.am    1  UNL1       -0.2723
      4 C          61.0398   87.0514    9.9487 C.3     1  UNL1        0.1257
      5 C          60.0881   87.8922    9.1505 C.3     1  UNL1        0.1637
      6 O          59.9000   89.3408    9.4914 O.3     1  UNL1       -0.3502
      7 C          60.6636   89.9486   10.6304 C.3     1  UNL1        0.1622
      8 C          61.6154   89.1078   11.4287 C.3     1  UNL1        0.1096
      9 C          63.5077   81.0240   10.5227 C.3     1  UNL1        0.0311
     10 C          63.3196   82.4726   10.8636 C.ar    1  UNL1       -0.0203
     11 C          63.1666   83.4868    9.7691 C.ar    1  UNL1       -0.0040
     12 C          62.9785   84.9354   10.1100 C.ar    1  UNL1        0.0058
     13 C          62.9434   85.3698   11.5452 C.ar    1  UNL1        0.0729
     14 C          63.0963   84.3555   12.6397 C.ar    1  UNL1        0.1069
     15 C          63.2845   82.9069   12.2988 C.ar    1  UNL1        0.0168
     16 N          63.0612   84.7899   14.0750 N.ar    1  UNL1       -0.1477
     17 N          61.8593   84.7722   14.9724 N.ar    1  UNL1       -0.1447
     18 C          62.2770   85.2895   16.3170 C.ar    1  UNL1        0.1446
     19 C          63.7371   85.6269   16.2506 C.ar    1  UNL1        0.1446
     20 N          64.2217   85.3182   14.8650 N.ar    1  UNL1       -0.1447
     21 C          62.3790   89.7156   12.5677 C.3     1  UNL1        0.0487
     22 C          63.4762   90.7011   12.2940 C.ar    1  UNL1       -0.0203
     23 C          63.6762   91.2345   10.9064 C.ar    1  UNL1       -0.0042
     24 C          64.7734   92.2200   10.6327 C.ar    1  UNL1       -0.0002
     25 C          65.6707   92.6720   11.7465 C.ar    1  UNL1        0.0031
     26 C          65.4707   92.1385   13.1340 C.ar    1  UNL1        0.0388
     27 C          64.3735   91.1530   13.4078 C.ar    1  UNL1       -0.0011
     28 C          66.3680   92.5905   14.2479 C.ar    1  UNL1        0.2037
     29 N          67.8300   92.9044   14.1302 N.ar    1  UNL1       -0.1829
     30 C          68.3263   93.3158   15.4846 C.ar    1  UNL1        0.3164
     31 O          67.1709   93.2561   16.4395 O.2     1  UNL1       -0.3274
     32 N          65.9607   92.8078   15.6751 N.ar    1  UNL1       -0.0554
@<TRIPOS>BOND
     1     9    10    1
     2    10    11   ar
     3    11    12   ar
     4    12    13   ar
     5    13     1    1
     6     1     2    2
     7     1     3   am
     8     3     4    1
     9     4     5    1
    10     5     6    1
    11     6     7    1
    12     7     8    1
    13     8    21    1
    14    21    22    1
    15    22    23   ar
    16    23    24   ar
    17    24    25   ar
    18    25    26   ar
    19    26    28    1
    20    28    29   ar
    21    29    30   ar
    22    30    31   ar
    23    31    32   ar
    24    26    27   ar
    25    13    14   ar
    26    14    16    1
    27    16    17   ar
    28    17    18   ar
    29    18    19   ar
    30    19    20   ar
    31    14    15   ar
    32    15    10   ar
    33     8     3    1
    34    27    22   ar
    35    20    16   ar
    36    32    28   ar
@<TRIPOS>MOLECULE
*****
 32 36 0 0 0
SMALL
GASTEIGER

@<TRIPOS>ATOM
      1 C          63.0572   87.0781   12.3820 C.2     1  UNL1        0.2506
      2 O          63.6457   87.4840   13.7007 O.2     1  UNL1       -0.2699
      3 N          62.4101   88.1057   11.5015 N.am    1  UNL1       -0.2723
      4 C          61.8215   87.6999   10.1827 C.3     1  UNL1        0.1257
      5 C          61.1745   88.7274    9.3022 C.3     1  UNL1        0.1637
      6 O          61.1159   90.1608    9.7403 O.3     1  UNL1       -0.3502
      7 C          61.7044   90.5667   11.0590 C.3     1  UNL1        0.1622
      8 C          62.3515   89.5391   11.9396 C.3     1  UNL1        0.1096
      9 C          63.2914   81.3446   10.6295 C.3     1  UNL1        0.0311
     10 C          63.2328   82.7780   11.0676 C.ar    1  UNL1       -0.0203
     11 C          63.2054   83.8744   10.0445 C.ar    1  UNL1       -0.0040
     12 C          63.1468   85.3078   10.4826 C.ar    1  UNL1        0.0058
     13 C          63.1157   85.6447   11.9439 C.ar    1  UNL1        0.0729
     14 C          63.1432   84.5483   12.9671 C.ar    1  UNL1        0.1069
     15 C          63.2017   83.1149   12.5289 C.ar    1  UNL1        0.0168
     16 N          63.1120   84.8852   14.4285 N.ar    1  UNL1       -0.1477
     17 N          61.8956   84.8914   15.3061 N.ar    1  UNL1       -0.1447
     18 C          62.3236   85.2850   16.6888 C.ar    1  UNL1        0.1446
     19 C          63.8046   85.5221   16.6657 C.ar    1  UNL1        0.1446
     20 N          64.2918   85.2750   15.2687 N.ar    1  UNL1       -0.1447
     21 C          62.9400   89.9449   13.2583 C.3     1  UNL1        0.0487
     22 C          64.2396   90.6927   13.3012 C.ar    1  UNL1       -0.0203
     23 C          65.1637   90.5240   14.4707 C.ar    1  UNL1       -0.0042
     24 C          66.4633   91.2718   14.5137 C.ar    1  UNL1       -0.0002
     25 C          66.8388   92.1883   13.3872 C.ar    1  UNL1        0.0031
     26 C          65.9148   92.3570   12.2178 C.ar    1  UNL1        0.0388
     27 C          64.6152   91.6092   12.1748 C.ar    1  UNL1       -0.0011
     28 C          66.2903   93.2736   11.0913 C.ar    1  UNL1        0.2037
     29 N          67.4771   93.1189   10.1870 N.ar    1  UNL1       -0.1829
     30 C          67.4652   94.2555    9.2082 C.ar    1  UNL1        0.3164
     31 O          66.2711   95.1125    9.5074 O.2     1  UNL1       -0.3274
     32 N          65.5450   94.5057   10.6712 N.ar    1  UNL1       -0.0554
@<TRIPOS>BOND
     1     9    10    1
     2    10    11   ar
     3    11    12   ar
     4    12    13   ar
     5    13     1    1
     6     1     2    2
     7     1     3   am
     8     3     4    1
     9     4     5    1
    10     5     6    1
    11     6     7    1
    12     7     8    1
    13     8    21    1
    14    21    22    1
    15    22    23   ar
    16    23    24   ar
    17    24    25   ar
    18    25    26   ar
    19    26    28    1
    20    28    29   ar
    21    29    30   ar
    22    30    31   ar
    23    31    32   ar
    24    26    27   ar
    25    13    14   ar
    26    14    16    1
    27    16    17   ar
    28    17    18   ar
    29    18    19   ar
    30    19    20   ar
    31    14    15   ar
    32    15    10   ar
    33     8     3    1
    34    27    22   ar
    35    20    16   ar
    36    32    28   ar
@<TRIPOS>MOLECULE
*****
 32 36 0 0 0
SMALL
GASTEIGER

@<TRIPOS>ATOM
      1 C          63.5264   87.5028   13.3548 C.2     1  UNL1        0.2506
      2 O          63.6683   88.5236   12.2650 O.2     1  UNL1       -0.2699
      3 N          63.4146   87.9427   14.7845 N.am    1  UNL1       -0.2723
      4 C          63.2726   86.9220   15.8744 C.3     1  UNL1        0.1257
      5 C          63.1608   87.3619   17.3041 C.3     1  UNL1        0.1637
      6 O          63.1909   88.8226   17.6438 O.3     1  UNL1       -0.3502
      7 C          63.3328   89.8434   16.5539 C.3     1  UNL1        0.1622
      8 C          63.4446   89.4035   15.1242 C.3     1  UNL1        0.1096
      9 C          63.4061   81.6600   11.9958 C.3     1  UNL1        0.0311
     10 C          63.4362   83.1207   12.3355 C.ar    1  UNL1       -0.0203
     11 C          64.2840   83.6089   13.4725 C.ar    1  UNL1       -0.0040
     12 C          64.3140   85.0696   13.8123 C.ar    1  UNL1        0.0058
     13 C          63.4963   86.0421   13.0151 C.ar    1  UNL1        0.0729
     14 C          62.6485   85.5538   11.8781 C.ar    1  UNL1        0.1069
     15 C          62.6185   84.0931   11.5383 C.ar    1  UNL1        0.0168
     16 N          61.8308   86.5263   11.0808 N.ar    1  UNL1       -0.1477
     17 N          60.6230   87.2704   11.5683 N.ar    1  UNL1       -0.1447
     18 C          60.1230   88.1294   10.4449 C.ar    1  UNL1        0.1446
     19 C          61.0217   87.9161    9.2630 C.ar    1  UNL1        0.1446
     20 N          62.0771   86.9253    9.6560 N.ar    1  UNL1       -0.1447
     21 C          63.5865   90.4242   14.0343 C.3     1  UNL1        0.0487
     22 C          64.8954   91.1284   13.8321 C.ar    1  UNL1       -0.0203
     23 C          65.9982   90.9645   14.8356 C.ar    1  UNL1       -0.0042
     24 C          67.3071   91.6687   14.6333 C.ar    1  UNL1       -0.0002
     25 C          67.5132   92.5368   13.4275 C.ar    1  UNL1        0.0031
     26 C          66.4105   92.7006   12.4240 C.ar    1  UNL1        0.0388
     27 C          65.1016   91.9964   12.6263 C.ar    1  UNL1       -0.0011
     28 C          66.6166   93.5687   11.2182 C.ar    1  UNL1        0.2037
     29 N          67.6980   93.4088   10.1911 N.ar    1  UNL1       -0.1829
     30 C          67.5272   94.4904    9.1659 C.ar    1  UNL1        0.3164
     31 O          66.3402   95.3188    9.5594 O.2     1  UNL1       -0.3274
     32 N          65.7774   94.7492   10.8278 N.ar    1  UNL1       -0.0554
@<TRIPOS>BOND
     1     9    10    1
     2    10    11   ar
     3    11    12   ar
     4    12    13   ar
     5    13     1    1
     6     1     2    2
     7     1     3   am
     8     3     4    1
     9     4     5    1
    10     5     6    1
    11     6     7    1
    12     7     8    1
    13     8    21    1
    14    21    22    1
    15    22    23   ar
    16    23    24   ar
    17    24    25   ar
    18    25    26   ar
    19    26    28    1
    20    28    29   ar
    21    29    30   ar
    22    30    31   ar
    23    31    32   ar
    24    26    27   ar
    25    13    14   ar
    26    14    16    1
    27    16    17   ar
    28    17    18   ar
    29    18    19   ar
    30    19    20   ar
    31    14    15   ar
    32    15    10   ar
    33     8     3    1
    34    27    22   ar
    35    20    16   ar
    36    32    28   ar
@<TRIPOS>MOLECULE
*****
 32 36 0 0 0
SMALL
GASTEIGER

@<TRIPOS>ATOM
      1 C          62.7459   88.9398   11.6295 C.2     1  UNL1        0.2506
      2 O          62.9617   87.8023   12.5831 O.2     1  UNL1       -0.2699
      3 N          61.7028   88.8318   10.5570 N.am    1  UNL1       -0.2723
      4 C          61.4869   89.9693    9.6033 C.3     1  UNL1        0.1257
      5 C          60.4438   89.8613    8.5309 C.3     1  UNL1        0.1637
      6 O          59.6166   88.6157    8.4120 O.3     1  UNL1       -0.3502
      7 C          59.8325   87.4781    9.3655 C.3     1  UNL1        0.1622
      8 C          60.8756   87.5862   10.4381 C.3     1  UNL1        0.1096
      9 C          66.0548   93.9223   12.1051 C.3     1  UNL1        0.0311
     10 C          65.2275   92.6767   11.9862 C.ar    1  UNL1       -0.0203
     11 C          64.6907   92.2576   10.6497 C.ar    1  UNL1       -0.0040
     12 C          63.8635   91.0120   10.5308 C.ar    1  UNL1        0.0058
     13 C          63.5731   90.1855   11.7484 C.ar    1  UNL1        0.0729
     14 C          64.1099   90.6045   13.0848 C.ar    1  UNL1        0.1069
     15 C          64.9371   91.8502   13.2037 C.ar    1  UNL1        0.0168
     16 N          63.8195   89.7780   14.3025 N.ar    1  UNL1       -0.1477
     17 N          62.7847   90.0786   15.3459 N.ar    1  UNL1       -0.1447
     18 C          62.8385   88.9922   16.3787 C.ar    1  UNL1        0.1446
     19 C          63.9067   88.0201   15.9736 C.ar    1  UNL1        0.1446
     20 N          64.5130   88.5058   14.6904 N.ar    1  UNL1       -0.1447
     21 C          61.0914   86.4486   11.3917 C.3     1  UNL1        0.0487
     22 C          61.9911   85.3106   11.0102 C.ar    1  UNL1       -0.0203
     23 C          62.7299   85.3435    9.7052 C.ar    1  UNL1       -0.0042
     24 C          63.6296   84.2055    9.3238 C.ar    1  UNL1       -0.0002
     25 C          63.7905   83.0346   10.2473 C.ar    1  UNL1        0.0031
     26 C          63.0517   83.0017   11.5523 C.ar    1  UNL1        0.0388
     27 C          62.1520   84.1397   11.9338 C.ar    1  UNL1       -0.0011
     28 C          63.2126   81.8307   12.4760 C.ar    1  UNL1        0.2037
     29 N          62.5053   80.5130   12.3605 N.ar    1  UNL1       -0.1829
     30 C          62.9645   79.6398   13.4904 C.ar    1  UNL1        0.3164
     31 O          63.9557   80.4179   14.3042 O.2     1  UNL1       -0.3274
     32 N          64.1090   81.7719   13.6772 N.ar    1  UNL1       -0.0554
@<TRIPOS>BOND
     1     9    10    1
     2    10    11   ar
     3    11    12   ar
     4    12    13   ar
     5    13     1    1
     6     1     2    2
     7     1     3   am
     8     3     4    1
     9     4     5    1
    10     5     6    1
    11     6     7    1
    12     7     8    1
    13     8    21    1
    14    21    22    1
    15    22    23   ar
    16    23    24   ar
    17    24    25   ar
    18    25    26   ar
    19    26    28    1
    20    28    29   ar
    21    29    30   ar
    22    30    31   ar
    23    31    32   ar
    24    26    27   ar
    25    13    14   ar
    26    14    16    1
    27    16    17   ar
    28    17    18   ar
    29    18    19   ar
    30    19    20   ar
    31    14    15   ar
    32    15    10   ar
    33     8     3    1
    34    27    22   ar
    35    20    16   ar
    36    32    28   ar
@<TRIPOS>MOLECULE
*****
 32 36 0 0 0
SMALL
GASTEIGER

@<TRIPOS>ATOM
      1 C          62.7396   88.5734   11.5580 C.2     1  UNL1        0.2506
      2 O          62.7441   90.0723   11.5032 O.2     1  UNL1       -0.2699
      3 N          63.3515   87.8639   12.7294 N.am    1  UNL1       -0.2723
      4 C          63.3470   86.3649   12.7842 C.3     1  UNL1        0.1257
      5 C          63.9589   85.6554   13.9556 C.3     1  UNL1        0.1637
      6 O          64.5753   86.4449   15.0722 O.3     1  UNL1       -0.3502
      7 C          64.5798   87.9438   15.0174 C.3     1  UNL1        0.1622
      8 C          63.9679   88.6534   13.8460 C.3     1  UNL1        0.1096
      9 C          60.2741   85.4154    7.0916 C.3     1  UNL1        0.0311
     10 C          60.8905   86.2049    8.2082 C.ar    1  UNL1       -0.0203
     11 C          62.3395   86.0182    8.5479 C.ar    1  UNL1       -0.0040
     12 C          62.9559   86.8077    9.6645 C.ar    1  UNL1        0.0058
     13 C          62.1233   87.7839   10.4414 C.ar    1  UNL1        0.0729
     14 C          60.6742   87.9707   10.1017 C.ar    1  UNL1        0.1069
     15 C          60.0579   87.1812    8.9851 C.ar    1  UNL1        0.0168
     16 N          59.8415   88.9469   10.8787 N.ar    1  UNL1       -0.1477
     17 N          59.0876   88.6534   12.1418 N.ar    1  UNL1       -0.1447
     18 C          58.3967   89.9131   12.5727 C.ar    1  UNL1        0.1446
     19 C          58.7236   90.9853   11.5758 C.ar    1  UNL1        0.1446
     20 N          59.6166   90.3881   10.5289 N.ar    1  UNL1       -0.1447
     21 C          63.9724   90.1524   13.7912 C.3     1  UNL1        0.0487
     22 C          65.2733   90.8969   13.7343 C.ar    1  UNL1       -0.0203
     23 C          66.1788   90.9173   14.9300 C.ar    1  UNL1       -0.0042
     24 C          67.4797   91.6618   14.8730 C.ar    1  UNL1       -0.0002
     25 C          67.8752   92.3860   13.6204 C.ar    1  UNL1        0.0031
     26 C          66.9698   92.3655   12.4247 C.ar    1  UNL1        0.0388
     27 C          65.6689   91.6210   12.4816 C.ar    1  UNL1       -0.0011
     28 C          67.3653   93.0897   11.1719 C.ar    1  UNL1        0.2037
     29 N          66.9093   94.4592   10.7639 N.ar    1  UNL1       -0.1829
     30 C          67.5484   94.7873    9.4471 C.ar    1  UNL1        0.3164
     31 O          68.3994   93.6206    9.0414 O.2     1  UNL1       -0.3274
     32 N          68.2863   92.5714   10.1074 N.ar    1  UNL1       -0.0554
@<TRIPOS>BOND
     1     9    10    1
     2    10    11   ar
     3    11    12   ar
     4    12    13   ar
     5    13     1    1
     6     1     2    2
     7     1     3   am
     8     3     4    1
     9     4     5    1
    10     5     6    1
    11     6     7    1
    12     7     8    1
    13     8    21    1
    14    21    22    1
    15    22    23   ar
    16    23    24   ar
    17    24    25   ar
    18    25    26   ar
    19    26    28    1
    20    28    29   ar
    21    29    30   ar
    22    30    31   ar
    23    31    32   ar
    24    26    27   ar
    25    13    14   ar
    26    14    16    1
    27    16    17   ar
    28    17    18   ar
    29    18    19   ar
    30    19    20   ar
    31    14    15   ar
    32    15    10   ar
    33     8     3    1
    34    27    22   ar
    35    20    16   ar
    36    32    28   ar
@<TRIPOS>MOLECULE
*****
 32 36 0 0 0
SMALL
GASTEIGER

@<TRIPOS>ATOM
      1 C          63.4293   87.4690   13.1534 C.2     1  UNL1        0.2506
      2 O          63.3970   88.1398   11.8121 O.2     1  UNL1       -0.2699
      3 N          63.3506   88.2915   14.4053 N.am    1  UNL1       -0.2723
      4 C          63.3828   87.6208   15.7466 C.3     1  UNL1        0.1257
      5 C          63.3041   88.4433   16.9985 C.3     1  UNL1        0.1637
      6 O          63.1931   89.9365   16.9092 O.3     1  UNL1       -0.3502
      7 C          63.1609   90.6072   15.5679 C.3     1  UNL1        0.1622
      8 C          63.2396   89.7847   14.3159 C.3     1  UNL1        0.1096
      9 C          63.8730   81.4962   13.5108 C.3     1  UNL1        0.0311
     10 C          63.7621   82.9894   13.4215 C.ar    1  UNL1       -0.0203
     11 C          64.4356   83.8541   14.4455 C.ar    1  UNL1       -0.0040
     12 C          64.3247   85.3473   14.3561 C.ar    1  UNL1        0.0058
     13 C          63.5402   85.9758   13.2427 C.ar    1  UNL1        0.0729
     14 C          62.8667   85.1111   12.2188 C.ar    1  UNL1        0.1069
     15 C          62.9776   83.6179   12.3081 C.ar    1  UNL1        0.0168
     16 N          62.0822   85.7396   11.1053 N.ar    1  UNL1       -0.1477
     17 N          60.8520   86.5837   11.2608 N.ar    1  UNL1       -0.1447
     18 C          60.3996   87.0001    9.8926 C.ar    1  UNL1        0.1446
     19 C          61.3503   86.4133    8.8915 C.ar    1  UNL1        0.1446
     20 N          62.3901   85.6342    9.6411 N.ar    1  UNL1       -0.1447
     21 C          63.2074   90.4555   12.9747 C.3     1  UNL1        0.0487
     22 C          64.3479   91.3304   12.5460 C.ar    1  UNL1       -0.0203
     23 C          64.3996   91.8621   11.1444 C.ar    1  UNL1       -0.0042
     24 C          65.5401   92.7370   10.7158 C.ar    1  UNL1       -0.0002
     25 C          66.6290   93.0802   11.6887 C.ar    1  UNL1        0.0031
     26 C          66.5772   92.5484   13.0903 C.ar    1  UNL1        0.0388
     27 C          65.4367   91.6735   13.5190 C.ar    1  UNL1       -0.0011
     28 C          67.6661   92.8916   14.0634 C.ar    1  UNL1        0.2037
     29 N          67.5299   93.7865   15.2594 N.ar    1  UNL1       -0.1829
     30 C          68.8619   93.8480   15.9464 C.ar    1  UNL1        0.3164
     31 O          69.8214   92.9912   15.1748 O.2     1  UNL1       -0.3274
     32 N          69.0823   92.4001   14.0111 N.ar    1  UNL1       -0.0554
@<TRIPOS>BOND
     1     9    10    1
     2    10    11   ar
     3    11    12   ar
     4    12    13   ar
     5    13     1    1
     6     1     2    2
     7     1     3   am
     8     3     4    1
     9     4     5    1
    10     5     6    1
    11     6     7    1
    12     7     8    1
    13     8    21    1
    14    21    22    1
    15    22    23   ar
    16    23    24   ar
    17    24    25   ar
    18    25    26   ar
    19    26    28    1
    20    28    29   ar
    21    29    30   ar
    22    30    31   ar
    23    31    32   ar
    24    26    27   ar
    25    13    14   ar
    26    14    16    1
    27    16    17   ar
    28    17    18   ar
    29    18    19   ar
    30    19    20   ar
    31    14    15   ar
    32    15    10   ar
    33     8     3    1
    34    27    22   ar
    35    20    16   ar
    36    32    28   ar
@<TRIPOS>MOLECULE
*****
 32 36 0 0 0
SMALL
GASTEIGER

@<TRIPOS>ATOM
      1 C          62.8143   88.3193   11.1055 C.2     1  UNL1        0.2506
      2 O          63.1066   89.7758   10.8985 O.2     1  UNL1       -0.2699
      3 N          63.2527   87.6384   12.3681 N.am    1  UNL1       -0.2723
      4 C          62.9604   86.1817   12.5751 C.3     1  UNL1        0.1257
      5 C          63.3987   85.5009   13.8377 C.3     1  UNL1        0.1637
      6 O          64.1294   86.2766   14.8934 O.3     1  UNL1       -0.3502
      7 C          64.4217   87.7332   14.6864 C.3     1  UNL1        0.1622
      8 C          63.9833   88.4141   13.4237 C.3     1  UNL1        0.1096
      9 C          59.8918   85.2164    6.8828 C.3     1  UNL1        0.0311
     10 C          60.6224   85.9921    7.9385 C.ar    1  UNL1       -0.0203
     11 C          62.0938   85.7820    8.1402 C.ar    1  UNL1       -0.0040
     12 C          62.8245   86.5577    9.1958 C.ar    1  UNL1        0.0058
     13 C          62.0837   87.5435   10.0498 C.ar    1  UNL1        0.0729
     14 C          60.6123   87.7536    9.8482 C.ar    1  UNL1        0.1069
     15 C          59.8816   86.9779    8.7925 C.ar    1  UNL1        0.0168
     16 N          59.8714   88.7395   10.7022 N.ar    1  UNL1       -0.1477
     17 N          59.7028   90.2022   10.4160 N.ar    1  UNL1       -0.1447
     18 C          58.8963   90.8025   11.5292 C.ar    1  UNL1        0.1446
     19 C          58.5664   89.7106   12.5034 C.ar    1  UNL1        0.1446
     20 N          59.1691   88.4356   11.9923 N.ar    1  UNL1       -0.1447
     21 C          64.2756   89.8707   13.2168 C.3     1  UNL1        0.0487
     22 C          64.7090   90.7206   14.3744 C.ar    1  UNL1       -0.0203
     23 C          63.8038   90.8940   15.5578 C.ar    1  UNL1       -0.0042
     24 C          64.2371   91.7438   16.7153 C.ar    1  UNL1       -0.0002
     25 C          65.5757   92.4203   16.6895 C.ar    1  UNL1        0.0031
     26 C          66.4808   92.2468   15.5061 C.ar    1  UNL1        0.0388
     27 C          66.0475   91.3970   14.3485 C.ar    1  UNL1       -0.0011
     28 C          67.8195   92.9233   15.4802 C.ar    1  UNL1        0.2037
     29 N          68.2395   94.0801   16.3376 N.ar    1  UNL1       -0.1829
     30 C          69.6526   94.4334   15.9796 C.ar    1  UNL1        0.3164
     31 O          70.1060   93.4949   14.9009 O.2     1  UNL1       -0.3274
     32 N          68.9731   92.5616   14.5922 N.ar    1  UNL1       -0.0554
@<TRIPOS>BOND
     1     9    10    1
     2    10    11   ar
     3    11    12   ar
     4    12    13   ar
     5    13     1    1
     6     1     2    2
     7     1     3   am
     8     3     4    1
     9     4     5    1
    10     5     6    1
    11     6     7    1
    12     7     8    1
    13     8    21    1
    14    21    22    1
    15    22    23   ar
    16    23    24   ar
    17    24    25   ar
    18    25    26   ar
    19    26    28    1
    20    28    29   ar
    21    29    30   ar
    22    30    31   ar
    23    31    32   ar
    24    26    27   ar
    25    13    14   ar
    26    14    16    1
    27    16    17   ar
    28    17    18   ar
    29    18    19   ar
    30    19    20   ar
    31    14    15   ar
    32    15    10   ar
    33     8     3    1
    34    27    22   ar
    35    20    16   ar
    36    32    28   ar
@<TRIPOS>MOLECULE
*****
 32 36 0 0 0
SMALL
GASTEIGER

@<TRIPOS>ATOM
      1 C          63.9560   85.1497   14.0658 C.2     1  UNL1        0.2506
      2 O          64.9707   85.8918   13.2475 O.2     1  UNL1       -0.2699
      3 N          63.3229   85.8102   15.2544 N.am    1  UNL1       -0.2723
      4 C          62.3082   85.0680   16.0728 C.3     1  UNL1        0.1257
      5 C          61.6750   85.7285   17.2614 C.3     1  UNL1        0.1637
      6 O          62.0564   87.1312   17.6317 O.3     1  UNL1       -0.3502
      7 C          63.0711   87.8733   16.8134 C.3     1  UNL1        0.1622
      8 C          63.7043   87.2128   15.6247 C.3     1  UNL1        0.1096
      9 C          62.4302   79.5392   12.5847 C.3     1  UNL1        0.0311
     10 C          62.8117   80.9418   12.9550 C.ar    1  UNL1       -0.0203
     11 C          63.5631   81.2038   14.2265 C.ar    1  UNL1       -0.0040
     12 C          63.9445   82.6065   14.5967 C.ar    1  UNL1        0.0058
     13 C          63.5746   83.7471   13.6956 C.ar    1  UNL1        0.0729
     14 C          62.8232   83.4850   12.4241 C.ar    1  UNL1        0.1069
     15 C          62.4417   82.0824   12.0538 C.ar    1  UNL1        0.0168
     16 N          62.4532   84.6256   11.5228 N.ar    1  UNL1       -0.1477
     17 N          61.5441   85.7664   11.8724 N.ar    1  UNL1       -0.1447
     18 C          61.4563   86.6715   10.6795 C.ar    1  UNL1        0.1446
     19 C          62.3112   86.0900    9.5926 C.ar    1  UNL1        0.1446
     20 N          62.9273   84.8256   10.1139 N.ar    1  UNL1       -0.1447
     21 C          64.7189   87.9550   14.8064 C.3     1  UNL1        0.0487
     22 C          64.2754   89.0193   13.8470 C.ar    1  UNL1       -0.0203
     23 C          63.1038   88.7734   12.9432 C.ar    1  UNL1       -0.0042
     24 C          62.6603   89.8378   11.9838 C.ar    1  UNL1       -0.0002
     25 C          63.3884   91.1480   11.9282 C.ar    1  UNL1        0.0031
     26 C          64.5600   91.3939   12.8320 C.ar    1  UNL1        0.0388
     27 C          65.0035   90.3295   13.7914 C.ar    1  UNL1       -0.0011
     28 C          65.2882   92.7042   12.7764 C.ar    1  UNL1        0.2037
     29 N          65.5828   93.4973   11.5377 N.ar    1  UNL1       -0.1829
     30 C          66.3262   94.7346   11.9455 C.ar    1  UNL1        0.3164
     31 O          66.4911   94.7062   13.4362 O.2     1  UNL1       -0.3274
     32 N          65.8495   93.4514   13.9497 N.ar    1  UNL1       -0.0554
@<TRIPOS>BOND
     1     9    10    1
     2    10    11   ar
     3    11    12   ar
     4    12    13   ar
     5    13     1    1
     6     1     2    2
     7     1     3   am
     8     3     4    1
     9     4     5    1
    10     5     6    1
    11     6     7    1
    12     7     8    1
    13     8    21    1
    14    21    22    1
    15    22    23   ar
    16    23    24   ar
    17    24    25   ar
    18    25    26   ar
    19    26    28    1
    20    28    29   ar
    21    29    30   ar
    22    30    31   ar
    23    31    32   ar
    24    26    27   ar
    25    13    14   ar
    26    14    16    1
    27    16    17   ar
    28    17    18   ar
    29    18    19   ar
    30    19    20   ar
    31    14    15   ar
    32    15    10   ar
    33     8     3    1
    34    27    22   ar
    35    20    16   ar
    36    32    28   ar
@<TRIPOS>MOLECULE
*****
 32 36 0 0 0
SMALL
GASTEIGER

@<TRIPOS>ATOM
      1 C          64.0608   84.9482   14.1441 C.2     1  UNL1        0.2506
      2 O          65.1276   85.6815   13.3864 O.2     1  UNL1       -0.2699
      3 N          63.4012   85.5949   15.3259 N.am    1  UNL1       -0.2723
      4 C          62.3342   84.8617   16.0836 C.3     1  UNL1        0.1257
      5 C          61.6746   85.5084   17.2654 C.3     1  UNL1        0.1637
      6 O          62.0819   86.8883   17.6895 O.3     1  UNL1       -0.3502
      7 C          63.1488   87.6216   16.9318 C.3     1  UNL1        0.1622
      8 C          63.8084   86.9749   15.7500 C.3     1  UNL1        0.1096
      9 C          62.4316   79.4285   12.4475 C.3     1  UNL1        0.0311
     10 C          62.8389   80.8084   12.8717 C.ar    1  UNL1       -0.0203
     11 C          63.6319   81.0029   14.1299 C.ar    1  UNL1       -0.0040
     12 C          64.0392   82.3828   14.5541 C.ar    1  UNL1        0.0058
     13 C          63.6535   83.5683   13.7199 C.ar    1  UNL1        0.0729
     14 C          62.8604   83.3738   12.4617 C.ar    1  UNL1        0.1069
     15 C          62.4532   81.9939   12.0376 C.ar    1  UNL1        0.0168
     16 N          62.4747   84.5593   11.6275 N.ar    1  UNL1       -0.1477
     17 N          61.6064   85.7011   12.0662 N.ar    1  UNL1       -0.1447
     18 C          61.4845   86.6586   10.9181 C.ar    1  UNL1        0.1446
     19 C          62.2775   86.1086    9.7697 C.ar    1  UNL1        0.1446
     20 N          62.8894   84.8112   10.2082 N.ar    1  UNL1       -0.1447
     21 C          64.8753   87.7081   14.9923 C.3     1  UNL1        0.0487
     22 C          64.5287   88.9430   14.2145 C.ar    1  UNL1       -0.0203
     23 C          65.2241   90.2378   14.5140 C.ar    1  UNL1       -0.0042
     24 C          64.8775   91.4727   13.7362 C.ar    1  UNL1       -0.0002
     25 C          63.8355   91.4127   12.6589 C.ar    1  UNL1        0.0031
     26 C          63.1402   90.1178   12.3594 C.ar    1  UNL1        0.0388
     27 C          63.4868   88.8830   13.1372 C.ar    1  UNL1       -0.0011
     28 C          62.0981   90.0578   11.2820 C.ar    1  UNL1        0.2037
     29 N          60.6219   90.2436   11.4719 N.ar    1  UNL1       -0.1829
     30 C          59.9609   90.1020   10.1328 C.ar    1  UNL1        0.3164
     31 O          61.0286   89.8287    9.1153 O.2     1  UNL1       -0.3274
     32 N          62.3495   89.8013    9.8256 N.ar    1  UNL1       -0.0554
@<TRIPOS>BOND
     1     9    10    1
     2    10    11   ar
     3    11    12   ar
     4    12    13   ar
     5    13     1    1
     6     1     2    2
     7     1     3   am
     8     3     4    1
     9     4     5    1
    10     5     6    1
    11     6     7    1
    12     7     8    1
    13     8    21    1
    14    21    22    1
    15    22    23   ar
    16    23    24   ar
    17    24    25   ar
    18    25    26   ar
    19    26    28    1
    20    28    29   ar
    21    29    30   ar
    22    30    31   ar
    23    31    32   ar
    24    26    27   ar
    25    13    14   ar
    26    14    16    1
    27    16    17   ar
    28    17    18   ar
    29    18    19   ar
    30    19    20   ar
    31    14    15   ar
    32    15    10   ar
    33     8     3    1
    34    27    22   ar
    35    20    16   ar
    36    32    28   ar
