@<TRIPOS>MOLECULE
*****
 22 24 0 0 0
SMALL
GASTEIGER

@<TRIPOS>ATOM
      1 C          63.4832   85.4215   13.0193 C.2     1  UNL1       -0.0246
      2 C          63.0414   84.1374   12.3823 C.2     1  UNL1       -0.0421
      3 C          62.2863   84.4764   11.1313 C.3     1  UNL1        0.0480
      4 C          62.2615   85.9700   10.9952 C.ar    1  UNL1       -0.0184
      5 C          61.6609   86.8735    9.9594 C.ar    1  UNL1       -0.0040
      6 C          61.8001   88.3613   10.0906 C.ar    1  UNL1       -0.0003
      7 C          62.5398   88.9454   11.2574 C.ar    1  UNL1       -0.0000
      8 C          63.1404   88.0419   12.2932 C.ar    1  UNL1       -0.0006
      9 C          63.0012   86.5541   12.1620 C.ar    1  UNL1       -0.0079
     10 C          65.6947   85.0867   14.3412 C.3     1  UNL1        0.0111
     11 C          64.2690   85.5505   14.2905 C.3     1  UNL1        0.0634
     12 C          63.6294   86.1431   15.5109 C.ar    1  UNL1        0.0818
     13 C          62.8546   85.2685   16.4514 C.ar    1  UNL1        0.1139
     14 N          62.2149   85.8612   17.6719 N.ar    1  UNL1       -0.2394
     15 C          62.3500   87.3286   17.9518 C.ar    1  UNL1        0.1195
     16 C          63.1248   88.2034   17.0113 C.ar    1  UNL1        0.1191
     17 N          63.7644   87.6106   15.7909 N.ar    1  UNL1       -0.2446
     18 C          63.3078   82.7567   12.9046 C.3     1  UNL1        0.0394
     19 C          62.4317   82.1781   13.9759 C.3     1  UNL1        0.0765
     20 N          61.7308   80.8717   13.7472 N.3     1  UNL1       -0.2700
     21 C          60.3021   80.7028   14.1718 C.3     1  UNL1        0.0897
     22 C          62.4586   79.7344   13.0939 C.3     1  UNL1        0.0897
@<TRIPOS>BOND
     1    11    10    1
     2    11     1    1
     3     1     2    2
     4     2    18    1
     5    18    19    1
     6    19    20    1
     7    20    21    1
     8    20    22    1
     9     2     3    1
    10     3     4    1
    11     4     5   ar
    12     5     6   ar
    13     6     7   ar
    14     7     8   ar
    15     8     9   ar
    16    11    12    1
    17    12    13   ar
    18    13    14   ar
    19    14    15   ar
    20    15    16   ar
    21    16    17   ar
    22     9     1    1
    23    17    12   ar
    24     9     4   ar
@<TRIPOS>MOLECULE
*****
 22 24 0 0 0
SMALL
GASTEIGER

@<TRIPOS>ATOM
      1 C          63.6996   89.1142   13.5258 C.2     1  UNL1       -0.0246
      2 C          63.9242   87.6465   13.7390 C.2     1  UNL1       -0.0421
      3 C          63.3099   86.9111   12.5850 C.3     1  UNL1        0.0480
      4 C          62.7056   87.9243   11.6585 C.ar    1  UNL1       -0.0184
      5 C          61.9672   87.7830   10.3605 C.ar    1  UNL1       -0.0040
      6 C          61.4697   89.0032    9.6440 C.ar    1  UNL1       -0.0003
      7 C          61.7106   90.3648   10.2255 C.ar    1  UNL1       -0.0000
      8 C          62.4490   90.5061   11.5234 C.ar    1  UNL1       -0.0006
      9 C          62.9465   89.2859   12.2399 C.ar    1  UNL1       -0.0079
     10 C          63.5720   90.3305   15.8181 C.3     1  UNL1        0.0111
     11 C          64.1492   90.2166   14.4382 C.3     1  UNL1        0.0634
     12 C          65.1759   91.2052   13.9709 C.ar    1  UNL1        0.0818
     13 C          66.5590   91.1809   14.5508 C.ar    1  UNL1        0.1139
     14 N          67.5857   92.1696   14.0834 N.ar    1  UNL1       -0.2394
     15 C          67.2293   93.1825   13.0361 C.ar    1  UNL1        0.1195
     16 C          65.8462   93.2069   12.4561 C.ar    1  UNL1        0.1191
     17 N          64.8195   92.2182   12.9235 N.ar    1  UNL1       -0.2446
     18 C          64.6377   87.0236   14.9021 C.3     1  UNL1        0.0394
     19 C          64.3305   85.6106   15.3011 C.3     1  UNL1        0.0765
     20 N          63.0172   85.2824   15.9470 N.3     1  UNL1       -0.2700
     21 C          62.5800   86.0229   17.1761 C.3     1  UNL1        0.0897
     22 C          62.1410   84.2136   15.3640 C.3     1  UNL1        0.0897
@<TRIPOS>BOND
     1    11    10    1
     2    11     1    1
     3     1     2    2
     4     2    18    1
     5    18    19    1
     6    19    20    1
     7    20    21    1
     8    20    22    1
     9     2     3    1
    10     3     4    1
    11     4     5   ar
    12     5     6   ar
    13     6     7   ar
    14     7     8   ar
    15     8     9   ar
    16    11    12    1
    17    12    13   ar
    18    13    14   ar
    19    14    15   ar
    20    15    16   ar
    21    16    17   ar
    22     9     1    1
    23    17    12   ar
    24     9     4   ar
@<TRIPOS>MOLECULE
*****
 22 24 0 0 0
SMALL
GASTEIGER

@<TRIPOS>ATOM
      1 C          61.4403   88.1652   10.8331 C.2     1  UNL1       -0.0246
      2 C          62.2159   86.9335   11.1957 C.2     1  UNL1       -0.0421
      3 C          61.9819   85.9072   10.1271 C.3     1  UNL1        0.0480
      4 C          61.0618   86.5046    9.1041 C.ar    1  UNL1       -0.0184
      5 C          60.4855   85.9581    7.8317 C.ar    1  UNL1       -0.0040
      6 C          59.5745   86.8071    6.9956 C.ar    1  UNL1       -0.0003
      7 C          59.2398   88.2026    7.4319 C.ar    1  UNL1       -0.0000
      8 C          59.8160   88.7492    8.7044 C.ar    1  UNL1       -0.0006
      9 C          60.7271   87.9001    9.5405 C.ar    1  UNL1       -0.0079
     10 C          60.1204   89.8354   12.3226 C.3     1  UNL1        0.0111
     11 C          61.3873   89.4385   11.6243 C.3     1  UNL1        0.0634
     12 C          62.6010   90.3149   11.7173 C.ar    1  UNL1        0.0818
     13 C          63.0890   91.0515   10.5051 C.ar    1  UNL1        0.1139
     14 N          64.3027   91.9279   10.5981 N.ar    1  UNL1       -0.2394
     15 C          65.0286   92.0677   11.9033 C.ar    1  UNL1        0.1195
     16 C          64.5408   91.3311   13.1155 C.ar    1  UNL1        0.1191
     17 N          63.3270   90.4547   13.0225 N.ar    1  UNL1       -0.2446
     18 C          63.0746   86.7589   12.4131 C.3     1  UNL1        0.0394
     19 C          63.3000   85.3893   12.9818 C.3     1  UNL1        0.0765
     20 N          63.2959   85.1841   14.4677 N.3     1  UNL1       -0.2700
     21 C          62.3937   84.1540   15.0801 C.3     1  UNL1        0.0897
     22 C          64.1940   86.0090   15.3411 C.3     1  UNL1        0.0897
@<TRIPOS>BOND
     1    11    10    1
     2    11     1    1
     3     1     2    2
     4     2    18    1
     5    18    19    1
     6    19    20    1
     7    20    21    1
     8    20    22    1
     9     2     3    1
    10     3     4    1
    11     4     5   ar
    12     5     6   ar
    13     6     7   ar
    14     7     8   ar
    15     8     9   ar
    16    11    12    1
    17    12    13   ar
    18    13    14   ar
    19    14    15   ar
    20    15    16   ar
    21    16    17   ar
    22     9     1    1
    23    17    12   ar
    24     9     4   ar
@<TRIPOS>MOLECULE
*****
 22 24 0 0 0
SMALL
GASTEIGER

@<TRIPOS>ATOM
      1 C          62.9684   85.3266   11.9505 C.2     1  UNL1       -0.0246
      2 C          63.4924   86.0668   13.1453 C.2     1  UNL1       -0.0421
      3 C          63.8349   85.0584   14.2016 C.3     1  UNL1        0.0480
      4 C          63.5226   83.6951   13.6597 C.ar    1  UNL1       -0.0184
      5 C          63.6566   82.3241   14.2533 C.ar    1  UNL1       -0.0040
      6 C          63.2552   81.1189   13.4556 C.ar    1  UNL1       -0.0003
      7 C          62.7197   81.2847   12.0643 C.ar    1  UNL1       -0.0000
      8 C          62.5856   82.6556   11.4707 C.ar    1  UNL1       -0.0006
      9 C          62.9871   83.8608   12.2683 C.ar    1  UNL1       -0.0079
     10 C          62.8041   85.2673    9.3582 C.3     1  UNL1        0.0111
     11 C          62.5069   85.9439   10.6636 C.3     1  UNL1        0.0634
     12 C          61.7481   87.2376   10.6821 C.ar    1  UNL1        0.0818
     13 C          62.2272   88.3999    9.8638 C.ar    1  UNL1        0.1139
     14 N          61.4683   89.6937    9.8823 N.ar    1  UNL1       -0.2394
     15 C          60.2303   89.8252   10.7190 C.ar    1  UNL1        0.1195
     16 C          59.7512   88.6629   11.5373 C.ar    1  UNL1        0.1191
     17 N          60.5100   87.3692   11.5188 N.ar    1  UNL1       -0.2446
     18 C          63.6468   87.5542   13.2631 C.3     1  UNL1        0.0394
     19 C          64.3100   88.1460   14.4713 C.3     1  UNL1        0.0765
     20 N          63.6882   89.3193   15.1690 N.3     1  UNL1       -0.2700
     21 C          63.6440   90.6573   14.4923 C.3     1  UNL1        0.0897
     22 C          63.1105   89.1546   16.5435 C.3     1  UNL1        0.0897
@<TRIPOS>BOND
     1    11    10    1
     2    11     1    1
     3     1     2    2
     4     2    18    1
     5    18    19    1
     6    19    20    1
     7    20    21    1
     8    20    22    1
     9     2     3    1
    10     3     4    1
    11     4     5   ar
    12     5     6   ar
    13     6     7   ar
    14     7     8   ar
    15     8     9   ar
    16    11    12    1
    17    12    13   ar
    18    13    14   ar
    19    14    15   ar
    20    15    16   ar
    21    16    17   ar
    22     9     1    1
    23    17    12   ar
    24     9     4   ar
@<TRIPOS>MOLECULE
*****
 22 24 0 0 0
SMALL
GASTEIGER

@<TRIPOS>ATOM
      1 C          63.7997   90.6351   13.6611 C.2     1  UNL1       -0.0246
      2 C          62.7691   90.3864   12.6000 C.2     1  UNL1       -0.0421
      3 C          63.2481   91.0249   11.3300 C.3     1  UNL1        0.0480
      4 C          64.5747   91.6682   11.6062 C.ar    1  UNL1       -0.0184
      5 C          65.5162   92.4422   10.7320 C.ar    1  UNL1       -0.0040
      6 C          66.7987   92.9753   11.2985 C.ar    1  UNL1       -0.0003
      7 C          67.1396   92.7344   12.7392 C.ar    1  UNL1       -0.0000
      8 C          66.1981   91.9604   13.6135 C.ar    1  UNL1       -0.0006
      9 C          64.9156   91.4273   13.0469 C.ar    1  UNL1       -0.0079
     10 C          63.6686   91.1775   16.1986 C.3     1  UNL1        0.0111
     11 C          63.7272   90.1728   15.0862 C.3     1  UNL1        0.0634
     12 C          63.7132   88.7059   15.3991 C.ar    1  UNL1        0.0818
     13 C          63.0990   88.2175   16.6775 C.ar    1  UNL1        0.1139
     14 N          63.0851   86.7505   16.9903 N.ar    1  UNL1       -0.2394
     15 C          63.6854   85.7720   16.0249 C.ar    1  UNL1        0.1195
     16 C          64.2996   86.2604   14.7465 C.ar    1  UNL1        0.1191
     17 N          64.3135   87.7273   14.4336 N.ar    1  UNL1       -0.2446
     18 C          61.4850   89.6317   12.7776 C.3     1  UNL1        0.0394
     19 C          60.4524   89.6419   11.6898 C.3     1  UNL1        0.0765
     20 N          60.5248   88.6383   10.5774 N.3     1  UNL1       -0.2700
     21 C          60.2471   89.0622    9.1655 C.3     1  UNL1        0.0897
     22 C          60.8750   87.2108   10.8768 C.3     1  UNL1        0.0897
@<TRIPOS>BOND
     1    11    10    1
     2    11     1    1
     3     1     2    2
     4     2    18    1
     5    18    19    1
     6    19    20    1
     7    20    21    1
     8    20    22    1
     9     2     3    1
    10     3     4    1
    11     4     5   ar
    12     5     6   ar
    13     6     7   ar
    14     7     8   ar
    15     8     9   ar
    16    11    12    1
    17    12    13   ar
    18    13    14   ar
    19    14    15   ar
    20    15    16   ar
    21    16    17   ar
    22     9     1    1
    23    17    12   ar
    24     9     4   ar
@<TRIPOS>MOLECULE
*****
 22 24 0 0 0
SMALL
GASTEIGER

@<TRIPOS>ATOM
      1 C          62.8134   86.8291   12.0180 C.2     1  UNL1       -0.0246
      2 C          63.5433   87.6262   13.0581 C.2     1  UNL1       -0.0421
      3 C          64.1611   86.6647   14.0297 C.3     1  UNL1        0.0480
      4 C          63.8130   85.2735   13.5901 C.ar    1  UNL1       -0.0184
      5 C          64.1468   83.9273   14.1613 C.ar    1  UNL1       -0.0040
      6 C          63.6477   82.6827   13.4892 C.ar    1  UNL1       -0.0003
      7 C          62.8147   82.7843   12.2458 C.ar    1  UNL1       -0.0000
      8 C          62.4809   84.1305   11.6746 C.ar    1  UNL1       -0.0006
      9 C          62.9800   85.3751   12.3468 C.ar    1  UNL1       -0.0079
     10 C          62.2904   86.8519    9.4732 C.3     1  UNL1        0.0111
     11 C          62.0507   87.3879   10.8535 C.3     1  UNL1        0.0634
     12 C          61.0483   88.4827   11.0693 C.ar    1  UNL1        0.0818
     13 C          61.1659   89.7684   10.3057 C.ar    1  UNL1        0.1139
     14 N          60.1634   90.8632   10.5215 N.ar    1  UNL1       -0.2394
     15 C          59.0434   90.6723   11.5008 C.ar    1  UNL1        0.1195
     16 C          58.9258   89.3865   12.2644 C.ar    1  UNL1        0.1191
     17 N          59.9282   88.2917   12.0486 N.ar    1  UNL1       -0.2446
     18 C          63.6388   89.1220   13.1164 C.3     1  UNL1        0.0394
     19 C          64.4742   89.7796   14.1745 C.3     1  UNL1        0.0765
     20 N          65.2526   91.0205   13.8520 N.3     1  UNL1       -0.2700
     21 C          66.4312   91.4071   14.6956 C.3     1  UNL1        0.0897
     22 C          64.8525   91.8749   12.6858 C.3     1  UNL1        0.0897
@<TRIPOS>BOND
     1    11    10    1
     2    11     1    1
     3     1     2    2
     4     2    18    1
     5    18    19    1
     6    19    20    1
     7    20    21    1
     8    20    22    1
     9     2     3    1
    10     3     4    1
    11     4     5   ar
    12     5     6   ar
    13     6     7   ar
    14     7     8   ar
    15     8     9   ar
    16    11    12    1
    17    12    13   ar
    18    13    14   ar
    19    14    15   ar
    20    15    16   ar
    21    16    17   ar
    22     9     1    1
    23    17    12   ar
    24     9     4   ar
@<TRIPOS>MOLECULE
*****
 22 24 0 0 0
SMALL
GASTEIGER

@<TRIPOS>ATOM
      1 C          63.5027   86.0414   13.1442 C.2     1  UNL1       -0.0246
      2 C          63.0884   84.6273   12.8635 C.2     1  UNL1       -0.0421
      3 C          62.2385   84.6300   11.6275 C.3     1  UNL1        0.0480
      4 C          62.1275   86.0457   11.1443 C.ar    1  UNL1       -0.0184
      5 C          61.4160   86.6532    9.9719 C.ar    1  UNL1       -0.0040
      6 C          61.4858   88.1330    9.7369 C.ar    1  UNL1       -0.0003
      7 C          62.2671   89.0053   10.6743 C.ar    1  UNL1       -0.0000
      8 C          62.9786   88.3978   11.8467 C.ar    1  UNL1       -0.0006
      9 C          62.9088   86.9180   12.0817 C.ar    1  UNL1       -0.0079
     10 C          65.5263   85.6653   14.7297 C.3     1  UNL1        0.0111
     11 C          64.3602   86.4986   14.2868 C.3     1  UNL1        0.0634
     12 C          64.0519   87.7890   14.9865 C.ar    1  UNL1        0.0818
     13 C          64.5610   89.0850   14.4287 C.ar    1  UNL1        0.1139
     14 N          64.2526   90.3754   15.1285 N.ar    1  UNL1       -0.2394
     15 C          63.4351   90.3699   16.3861 C.ar    1  UNL1        0.1195
     16 C          62.9259   89.0739   16.9440 C.ar    1  UNL1        0.1191
     17 N          63.2343   87.7835   16.2442 N.ar    1  UNL1       -0.2446
     18 C          63.4589   83.4222   13.6762 C.3     1  UNL1        0.0394
     19 C          62.3891   82.6096   14.3432 C.3     1  UNL1        0.0765
     20 N          61.9256   81.3254   13.7219 N.3     1  UNL1       -0.2700
     21 C          62.7667   80.6502   12.6794 C.3     1  UNL1        0.0897
     22 C          60.6211   80.7164   14.1431 C.3     1  UNL1        0.0897
@<TRIPOS>BOND
     1    11    10    1
     2    11     1    1
     3     1     2    2
     4     2    18    1
     5    18    19    1
     6    19    20    1
     7    20    21    1
     8    20    22    1
     9     2     3    1
    10     3     4    1
    11     4     5   ar
    12     5     6   ar
    13     6     7   ar
    14     7     8   ar
    15     8     9   ar
    16    11    12    1
    17    12    13   ar
    18    13    14   ar
    19    14    15   ar
    20    15    16   ar
    21    16    17   ar
    22     9     1    1
    23    17    12   ar
    24     9     4   ar
@<TRIPOS>MOLECULE
*****
 22 24 0 0 0
SMALL
GASTEIGER

@<TRIPOS>ATOM
      1 C          63.8637   89.4115   13.9695 C.2     1  UNL1       -0.0246
      2 C          64.0032   87.9203   14.0518 C.2     1  UNL1       -0.0421
      3 C          63.4947   87.3357   12.7673 C.3     1  UNL1        0.0480
      4 C          63.0411   88.4656   11.8913 C.ar    1  UNL1       -0.0184
      5 C          62.4498   88.4920   10.5130 C.ar    1  UNL1       -0.0040
      6 C          62.0865   89.8013    9.8777 C.ar    1  UNL1       -0.0003
      7 C          62.3146   91.0843   10.6207 C.ar    1  UNL1       -0.0000
      8 C          62.9058   91.0579   11.9990 C.ar    1  UNL1       -0.0006
      9 C          63.2691   89.7486   12.6342 C.ar    1  UNL1       -0.0079
     10 C          63.4574   90.4728   16.3059 C.3     1  UNL1        0.0111
     11 C          64.2508   90.3934   15.0353 C.3     1  UNL1        0.0634
     12 C          65.4313   91.2958   14.8308 C.ar    1  UNL1        0.0818
     13 C          66.1388   91.3173   13.5082 C.ar    1  UNL1        0.1139
     14 N          67.3193   92.2198   13.3037 N.ar    1  UNL1       -0.2394
     15 C          67.7924   93.1009   14.4217 C.ar    1  UNL1        0.1195
     16 C          67.0850   93.0795   15.7443 C.ar    1  UNL1        0.1191
     17 N          65.9045   92.1770   15.9488 N.ar    1  UNL1       -0.2446
     18 C          64.5543   87.1491   15.2143 C.3     1  UNL1        0.0394
     19 C          63.7716   86.0102   15.7975 C.3     1  UNL1        0.0765
     20 N          63.6790   84.7079   15.0590 N.3     1  UNL1       -0.2700
     21 C          64.8733   84.1763   14.3233 C.3     1  UNL1        0.0897
     22 C          62.3922   83.9371   15.0562 C.3     1  UNL1        0.0897
@<TRIPOS>BOND
     1    11    10    1
     2    11     1    1
     3     1     2    2
     4     2    18    1
     5    18    19    1
     6    19    20    1
     7    20    21    1
     8    20    22    1
     9     2     3    1
    10     3     4    1
    11     4     5   ar
    12     5     6   ar
    13     6     7   ar
    14     7     8   ar
    15     8     9   ar
    16    11    12    1
    17    12    13   ar
    18    13    14   ar
    19    14    15   ar
    20    15    16   ar
    21    16    17   ar
    22     9     1    1
    23    17    12   ar
    24     9     4   ar
@<TRIPOS>MOLECULE
*****
 22 24 0 0 0
SMALL
GASTEIGER

@<TRIPOS>ATOM
      1 C          64.8527   91.6373   12.4822 C.2     1  UNL1       -0.0246
      2 C          64.1035   90.4854   13.0836 C.2     1  UNL1       -0.0421
      3 C          64.4833   90.3907   14.5316 C.3     1  UNL1        0.0480
      4 C          65.4673   91.4842   14.8252 C.ar    1  UNL1       -0.0184
      5 C          66.1849   91.8778   16.0821 C.ar    1  UNL1       -0.0040
      6 C          67.1308   93.0419   16.0725 C.ar    1  UNL1       -0.0003
      7 C          67.3590   93.8124   14.8059 C.ar    1  UNL1       -0.0000
      8 C          66.6415   93.4188   13.5489 C.ar    1  UNL1       -0.0006
      9 C          65.6956   92.2547   13.5586 C.ar    1  UNL1       -0.0079
     10 C          63.6612   91.6052   10.1736 C.3     1  UNL1        0.0111
     11 C          64.7731   92.0922   11.0551 C.3     1  UNL1        0.0634
     12 C          65.8051   93.0339   10.5093 C.ar    1  UNL1        0.0818
     13 C          67.1513   92.5153   10.0985 C.ar    1  UNL1        0.1139
     14 N          68.1833   93.4571    9.5527 N.ar    1  UNL1       -0.2394
     15 C          67.8691   94.9176    9.4176 C.ar    1  UNL1        0.1195
     16 C          66.5229   95.4363    9.8284 C.ar    1  UNL1        0.1191
     17 N          65.4909   94.4945   10.3742 N.ar    1  UNL1       -0.2446
     18 C          63.1431   89.5860   12.3634 C.3     1  UNL1        0.0394
     19 C          61.7021   89.9807   12.2299 C.3     1  UNL1        0.0765
     20 N          60.6814   88.9637   11.8130 N.3     1  UNL1       -0.2700
     21 C          59.2534   89.1126   12.2476 C.3     1  UNL1        0.0897
     22 C          61.0886   87.7979   10.9616 C.3     1  UNL1        0.0897
@<TRIPOS>BOND
     1    11    10    1
     2    11     1    1
     3     1     2    2
     4     2    18    1
     5    18    19    1
     6    19    20    1
     7    20    21    1
     8    20    22    1
     9     2     3    1
    10     3     4    1
    11     4     5   ar
    12     5     6   ar
    13     6     7   ar
    14     7     8   ar
    15     8     9   ar
    16    11    12    1
    17    12    13   ar
    18    13    14   ar
    19    14    15   ar
    20    15    16   ar
    21    16    17   ar
    22     9     1    1
    23    17    12   ar
    24     9     4   ar
