@<TRIPOS>MOLECULE
*****
 37 40 0 0 0
SMALL
GASTEIGER

@<TRIPOS>ATOM
      1 O          62.2026   88.5591   12.3489 O.3     1  UNL1       -0.4529
      2 C          63.1657   89.6965   12.1799 C.ar    1  UNL1        0.1580
      3 C          64.1640   90.0003   13.2575 C.ar    1  UNL1        0.0694
      4 C          65.1271   91.1378   13.0885 C.ar    1  UNL1        0.1620
      5 F          66.1254   91.4416   14.1660 F       1  UNL1       -0.2026
      6 C          65.0919   91.9715   11.8420 C.ar    1  UNL1        0.1535
      7 C          64.0936   91.6677   10.7645 C.ar    1  UNL1        0.0370
      8 C          63.1305   90.5302   10.9335 C.ar    1  UNL1        0.0936
      9 CL         62.1322   90.2264    9.8559 Cl      1  UNL1       -0.0790
     10 S          66.0550   93.1090   11.6730 S.O2    1  UNL1        0.0769
     11 O          66.5545   92.4967   10.3980 O.2     1  UNL1       -0.1498
     12 O          65.5556   93.7213   12.9480 O.2     1  UNL1       -0.1498
     13 N          67.0181   94.2465   11.5041 N.pl3   1  UNL1       -0.1984
     14 H          67.7350   94.3867   12.1641 H       1  UNL1        0.1753
     15 C          66.8890   95.1704   10.3294 C.ar    1  UNL1        0.1542
     16 C          65.7676   96.1367   10.0868 C.ar    1  UNL1        0.0725
     17 S          66.0440   96.8537    8.7986 S.2     1  UNL1       -0.0625
     18 C          67.3363   96.3305    8.2450 C.ar    1  UNL1        0.1360
     19 N          67.8584   95.2902    9.1911 N.ar    1  UNL1       -0.2203
     20 C          62.3283   86.1476   11.3902 C.ar    1  UNL1        0.0294
     21 C          62.8383   84.7397   11.4778 C.ar    1  UNL1        0.0035
     22 C          63.7328   84.3354   12.6120 C.ar    1  UNL1        0.0713
     23 C          64.1173   85.3390   13.6584 C.ar    1  UNL1        0.0070
     24 C          63.6072   86.7468   13.5708 C.ar    1  UNL1        0.0371
     25 C          62.7127   87.1511   12.4366 C.ar    1  UNL1        0.1422
     26 N          59.6145   87.9437   11.6339 N.pl3   1  UNL1       -0.2474
     27 C          60.1863   87.3775   10.3680 C.2     1  UNL1        0.3309
     28 N          59.6112   87.5375    8.9919 N.2     1  UNL1        0.0755
     29 N          60.5031   86.8108    8.0294 N.2     1  UNL1       -0.0367
     30 C          61.6295   86.2017    8.8106 C.2     1  UNL1        0.1389
     31 C          61.4337   86.5520   10.2560 C.3     1  UNL1        0.1779
     32 H          58.7866   88.4757   11.6052 H       1  UNL1        0.2882
     33 H          60.0670   87.7832   12.4934 H       1  UNL1        0.2882
     34 C          64.2430   82.9275   12.6997 C.3     1  UNL1        0.4186
     35 F          64.7531   81.5197   12.7875 F       1  UNL1       -0.1659
     36 F          63.8230   82.8651   14.1383 F       1  UNL1       -0.1659
     37 F          64.6629   82.9900   11.2611 F       1  UNL1       -0.1659
@<TRIPOS>BOND
     1    26    27    1
     2    27    28    2
     3    28    29    1
     4    29    30    2
     5    30    31    1
     6    31    20    1
     7    20    21   ar
     8    21    22   ar
     9    22    34    1
    10    34    35    1
    11    34    36    1
    12    34    37    1
    13    22    23   ar
    14    23    24   ar
    15    24    25   ar
    16    25     1    1
    17     1     2    1
    18     2     3   ar
    19     3     4   ar
    20     4     5    1
    21     4     6   ar
    22     6    10    1
    23    10    11    2
    24    10    12    2
    25    10    13    1
    26    13    15    1
    27    15    16   ar
    28    16    17   ar
    29    17    18   ar
    30    18    19   ar
    31     6     7   ar
    32     7     8   ar
    33     8     9    1
    34    31    27    1
    35    25    20   ar
    36     8     2   ar
    37    19    15   ar
    38    26    32    1
    39    26    33    1
    40    13    14    1
@<TRIPOS>MOLECULE
*****
 37 40 0 0 0
SMALL
GASTEIGER

@<TRIPOS>ATOM
      1 O          62.1528   88.2460   12.7975 O.3     1  UNL1       -0.4529
      2 C          63.1071   89.3886   12.6136 C.ar    1  UNL1        0.1580
      3 C          63.0080   90.2601   11.3968 C.ar    1  UNL1        0.0694
      4 C          63.9623   91.4027   11.2129 C.ar    1  UNL1        0.1620
      5 F          63.8633   92.2743    9.9962 F       1  UNL1       -0.2026
      6 C          65.0157   91.6737   12.2459 C.ar    1  UNL1        0.1535
      7 C          65.1148   90.8022   13.4627 C.ar    1  UNL1        0.0370
      8 C          64.1605   89.6596   13.6465 C.ar    1  UNL1        0.0936
      9 CL         64.2595   88.7880   14.8634 Cl      1  UNL1       -0.0790
     10 S          65.9700   92.8163   12.0621 S.O2    1  UNL1        0.0769
     11 O          65.5990   93.3441   13.4162 O.2     1  UNL1       -0.1498
     12 O          66.3411   92.2885   10.7079 O.2     1  UNL1       -0.1498
     13 N          66.9243   93.9589   11.8782 N.pl3   1  UNL1       -0.1984
     14 H          67.6283   94.1246   12.5461 H       1  UNL1        0.1753
     15 C          66.8059   94.8491   10.6766 C.ar    1  UNL1        0.1542
     16 C          65.6611   95.7686   10.3700 C.ar    1  UNL1        0.0725
     17 S          65.9591   96.4638    9.0747 S.2     1  UNL1       -0.0625
     18 C          67.2882   95.9739    8.5808 C.ar    1  UNL1        0.1360
     19 N          67.8114   94.9760    9.5709 N.ar    1  UNL1       -0.2203
     20 C          62.0218   86.3981   10.9759 C.ar    1  UNL1        0.0294
     21 C          62.3883   85.0285   10.4860 C.ar    1  UNL1        0.0035
     22 C          63.2525   84.1373   11.3280 C.ar    1  UNL1        0.0713
     23 C          63.7501   84.6156   12.6597 C.ar    1  UNL1        0.0070
     24 C          63.3836   85.9852   13.1496 C.ar    1  UNL1        0.0371
     25 C          62.5194   86.8764   12.3076 C.ar    1  UNL1        0.1422
     26 N          59.4944   88.1726   12.0310 N.pl3   1  UNL1       -0.2474
     27 C          59.9959   88.1050   10.6190 C.2     1  UNL1        0.3309
     28 N          59.4237   88.8412    9.4440 N.2     1  UNL1        0.0755
     29 N          60.2317   88.4805    8.2327 N.2     1  UNL1       -0.0367
     30 C          61.3033   87.5214    8.6592 C.2     1  UNL1        0.1389
     31 C          61.1575   87.2894   10.1340 C.3     1  UNL1        0.1779
     32 H          58.7208   88.7400   12.2520 H       1  UNL1        0.2882
     33 H          59.9390   87.6497   12.7368 H       1  UNL1        0.2882
     34 C          63.6191   82.7677   10.8381 C.3     1  UNL1        0.4186
     35 F          63.9856   81.3982   10.3484 F       1  UNL1       -0.1659
     36 F          62.4537   82.1890   11.5844 F       1  UNL1       -0.1659
     37 F          64.7845   83.3465   10.0919 F       1  UNL1       -0.1659
@<TRIPOS>BOND
     1    26    27    1
     2    27    28    2
     3    28    29    1
     4    29    30    2
     5    30    31    1
     6    31    20    1
     7    20    21   ar
     8    21    22   ar
     9    22    34    1
    10    34    35    1
    11    34    36    1
    12    34    37    1
    13    22    23   ar
    14    23    24   ar
    15    24    25   ar
    16    25     1    1
    17     1     2    1
    18     2     3   ar
    19     3     4   ar
    20     4     5    1
    21     4     6   ar
    22     6    10    1
    23    10    11    2
    24    10    12    2
    25    10    13    1
    26    13    15    1
    27    15    16   ar
    28    16    17   ar
    29    17    18   ar
    30    18    19   ar
    31     6     7   ar
    32     7     8   ar
    33     8     9    1
    34    31    27    1
    35    25    20   ar
    36     8     2   ar
    37    19    15   ar
    38    26    32    1
    39    26    33    1
    40    13    14    1
@<TRIPOS>MOLECULE
*****
 37 40 0 0 0
SMALL
GASTEIGER

@<TRIPOS>ATOM
      1 O          62.3373   87.9070   12.3011 O.3     1  UNL1       -0.4529
      2 C          63.1868   89.1433   12.3115 C.ar    1  UNL1        0.1580
      3 C          63.0765   90.1384   11.1945 C.ar    1  UNL1        0.0694
      4 C          63.9260   91.3747   11.2049 C.ar    1  UNL1        0.1620
      5 F          63.8158   92.3698   10.0879 F       1  UNL1       -0.2026
      6 C          64.8857   91.6158   12.3322 C.ar    1  UNL1        0.1535
      7 C          64.9959   90.6206   13.4491 C.ar    1  UNL1        0.0370
      8 C          64.1464   89.3844   13.4388 C.ar    1  UNL1        0.0936
      9 CL         64.2567   88.3892   14.5558 Cl      1  UNL1       -0.0790
     10 S          65.7352   92.8520   12.3426 S.O2    1  UNL1        0.0769
     11 O          65.3716   93.0898   13.7783 O.2     1  UNL1       -0.1498
     12 O          66.0987   92.6142   10.9069 O.2     1  UNL1       -0.1498
     13 N          66.5846   94.0883   12.3530 N.pl3   1  UNL1       -0.1984
     14 H          67.1388   94.2981   13.1391 H       1  UNL1        0.1753
     15 C          66.5897   95.0048   11.1655 C.ar    1  UNL1        0.1542
     16 C          65.5660   96.0579   10.8602 C.ar    1  UNL1        0.0725
     17 S          65.9629   96.7330    9.5809 S.2     1  UNL1       -0.0625
     18 C          67.2318   96.0972    9.0955 C.ar    1  UNL1        0.1360
     19 N          67.6192   95.0291   10.0749 N.ar    1  UNL1       -0.2203
     20 C          62.4376   85.7041   10.9274 C.ar    1  UNL1        0.0294
     21 C          62.2092   84.9618    9.6441 C.ar    1  UNL1        0.0035
     22 C          61.6519   85.6803    8.4512 C.ar    1  UNL1        0.0713
     23 C          61.3231   87.1410    8.5415 C.ar    1  UNL1        0.0070
     24 C          61.5516   87.8833    9.8248 C.ar    1  UNL1        0.0371
     25 C          62.1088   87.1648   11.0177 C.ar    1  UNL1        0.1422
     26 N          64.7520   83.4039   10.8731 N.pl3   1  UNL1       -0.2474
     27 C          64.0587   83.9284   12.0955 C.2     1  UNL1        0.3309
     28 N          64.3074   83.4876   13.5075 N.2     1  UNL1        0.0755
     29 N          63.3973   84.2724   14.4052 N.2     1  UNL1       -0.0367
     30 C          62.5862   85.1982   13.5480 C.2     1  UNL1        0.1389
     31 C          62.9949   84.9856   12.1205 C.3     1  UNL1        0.1779
     32 H          65.4406   82.7056   10.9592 H       1  UNL1        0.2882
     33 H          64.5185   83.7581    9.9846 H       1  UNL1        0.2882
     34 C          61.4234   84.9381    7.1678 C.3     1  UNL1        0.4186
     35 F          61.1949   84.1959    5.8845 F       1  UNL1       -0.1659
     36 F          59.9661   85.2888    7.2245 F       1  UNL1       -0.1659
     37 F          62.8807   84.5873    7.1112 F       1  UNL1       -0.1659
@<TRIPOS>BOND
     1    26    27    1
     2    27    28    2
     3    28    29    1
     4    29    30    2
     5    30    31    1
     6    31    20    1
     7    20    21   ar
     8    21    22   ar
     9    22    34    1
    10    34    35    1
    11    34    36    1
    12    34    37    1
    13    22    23   ar
    14    23    24   ar
    15    24    25   ar
    16    25     1    1
    17     1     2    1
    18     2     3   ar
    19     3     4   ar
    20     4     5    1
    21     4     6   ar
    22     6    10    1
    23    10    11    2
    24    10    12    2
    25    10    13    1
    26    13    15    1
    27    15    16   ar
    28    16    17   ar
    29    17    18   ar
    30    18    19   ar
    31     6     7   ar
    32     7     8   ar
    33     8     9    1
    34    31    27    1
    35    25    20   ar
    36     8     2   ar
    37    19    15   ar
    38    26    32    1
    39    26    33    1
    40    13    14    1
@<TRIPOS>MOLECULE
*****
 37 40 0 0 0
SMALL
GASTEIGER

@<TRIPOS>ATOM
      1 O          63.6728   91.1525   13.9884 O.3     1  UNL1       -0.4529
      2 C          63.6927   89.6818   14.2827 C.ar    1  UNL1        0.1580
      3 C          63.7393   88.6921   13.1565 C.ar    1  UNL1        0.0694
      4 C          63.7592   87.2214   13.4509 C.ar    1  UNL1        0.1620
      5 F          63.8058   86.2317   12.3248 F       1  UNL1       -0.2026
      6 C          63.7325   86.7405   14.8715 C.ar    1  UNL1        0.1535
      7 C          63.6859   87.7302   15.9976 C.ar    1  UNL1        0.0370
      8 C          63.6660   89.2009   15.7033 C.ar    1  UNL1        0.0936
      9 CL         63.6194   90.1906   16.8295 Cl      1  UNL1       -0.0790
     10 S          63.7524   85.2698   15.1659 S.O2    1  UNL1        0.0769
     11 O          62.3031   85.3267   15.5484 O.2     1  UNL1       -0.1498
     12 O          65.2017   85.2128   14.7834 O.2     1  UNL1       -0.1498
     13 N          63.7723   83.7991   15.4603 N.pl3   1  UNL1       -0.1984
     14 H          64.1424   83.4725   16.3121 H       1  UNL1        0.1753
     15 C          63.2283   82.8259   14.4567 C.ar    1  UNL1        0.1542
     16 C          63.5770   82.7755   12.9987 C.ar    1  UNL1        0.0725
     17 S          62.8044   81.6508   12.3758 S.2     1  UNL1       -0.0625
     18 C          61.9781   81.0060   13.4490 C.ar    1  UNL1        0.1360
     19 N          62.2401   81.7323   14.7350 N.ar    1  UNL1       -0.2203
     20 C          65.8403   92.3062   13.1393 C.ar    1  UNL1        0.0294
     21 C          66.6630   92.8566   12.0123 C.ar    1  UNL1        0.0035
     22 C          66.1407   92.8039   10.6072 C.ar    1  UNL1        0.0713
     23 C          64.7957   92.2007   10.3291 C.ar    1  UNL1        0.0070
     24 C          63.9731   91.6503   11.4561 C.ar    1  UNL1        0.0371
     25 C          64.4954   91.7030   12.8612 C.ar    1  UNL1        0.1422
     26 N          68.9505   91.9122   14.0458 N.pl3   1  UNL1       -0.2474
     27 C          67.7922   92.1778   14.9612 C.2     1  UNL1        0.3309
     28 N          67.8601   92.3089   16.4539 N.2     1  UNL1        0.0755
     29 N          66.4725   92.5711   16.9598 N.2     1  UNL1       -0.0367
     30 C          65.5470   92.6019   15.7797 C.2     1  UNL1        0.1389
     31 C          66.3626   92.3589   14.5445 C.3     1  UNL1        0.1779
     32 H          69.8566   91.8075   14.4162 H       1  UNL1        0.2882
     33 H          68.8046   91.8426   13.0747 H       1  UNL1        0.2882
     34 C          66.9633   93.3544    9.4800 C.3     1  UNL1        0.4186
     35 F          67.7859   93.9048    8.3530 F       1  UNL1       -0.1659
     36 F          66.1503   94.6147    9.5023 F       1  UNL1       -0.1659
     37 F          67.7763   92.0940    9.4578 F       1  UNL1       -0.1659
@<TRIPOS>BOND
     1    26    27    1
     2    27    28    2
     3    28    29    1
     4    29    30    2
     5    30    31    1
     6    31    20    1
     7    20    21   ar
     8    21    22   ar
     9    22    34    1
    10    34    35    1
    11    34    36    1
    12    34    37    1
    13    22    23   ar
    14    23    24   ar
    15    24    25   ar
    16    25     1    1
    17     1     2    1
    18     2     3   ar
    19     3     4   ar
    20     4     5    1
    21     4     6   ar
    22     6    10    1
    23    10    11    2
    24    10    12    2
    25    10    13    1
    26    13    15    1
    27    15    16   ar
    28    16    17   ar
    29    17    18   ar
    30    18    19   ar
    31     6     7   ar
    32     7     8   ar
    33     8     9    1
    34    31    27    1
    35    25    20   ar
    36     8     2   ar
    37    19    15   ar
    38    26    32    1
    39    26    33    1
    40    13    14    1
@<TRIPOS>MOLECULE
*****
 37 40 0 0 0
SMALL
GASTEIGER

@<TRIPOS>ATOM
      1 O          62.5207   87.7448   12.5309 O.3     1  UNL1       -0.4529
      2 C          63.3293   89.0081   12.5405 C.ar    1  UNL1        0.1580
      3 C          63.2289   89.9717   11.3953 C.ar    1  UNL1        0.0694
      4 C          64.0375   91.2350   11.4050 C.ar    1  UNL1        0.1620
      5 F          63.9371   92.1986   10.2598 F       1  UNL1       -0.2026
      6 C          64.9467   91.5347   12.5599 C.ar    1  UNL1        0.1535
      7 C          65.0471   90.5711   13.7050 C.ar    1  UNL1        0.0370
      8 C          64.2385   89.3078   13.6953 C.ar    1  UNL1        0.0936
      9 CL         64.3389   88.3442   14.8406 Cl      1  UNL1       -0.0790
     10 S          65.7554   92.7980   12.5695 S.O2    1  UNL1        0.0769
     11 O          65.4062   93.0105   14.0128 O.2     1  UNL1       -0.1498
     12 O          66.1045   92.5855   11.1263 O.2     1  UNL1       -0.1498
     13 N          66.5640   94.0613   12.5792 N.pl3   1  UNL1       -0.1984
     14 H          67.0711   94.3151   13.3840 H       1  UNL1        0.1753
     15 C          66.6001   94.9381   11.3626 C.ar    1  UNL1        0.1542
     16 C          65.7155   96.1211   11.1018 C.ar    1  UNL1        0.0725
     17 S          66.0958   96.6999    9.7712 S.2     1  UNL1       -0.0625
     18 C          67.2154   95.8745    9.2097 C.ar    1  UNL1        0.1360
     19 N          67.5271   94.7857   10.1932 N.ar    1  UNL1       -0.2203
     20 C          61.0173   87.5461   10.4213 C.ar    1  UNL1        0.0294
     21 C          60.6866   86.8772    9.1200 C.ar    1  UNL1        0.0035
     22 C          61.5289   85.7381    8.6271 C.ar    1  UNL1        0.0713
     23 C          62.7017   85.2678    9.4354 C.ar    1  UNL1        0.0070
     24 C          63.0323   85.9367   10.7366 C.ar    1  UNL1        0.0371
     25 C          62.1901   87.0758   11.2296 C.ar    1  UNL1        0.1422
     26 N          60.6676   90.4446    8.9630 N.pl3   1  UNL1       -0.2474
     27 C          60.0143   90.0175   10.2440 C.2     1  UNL1        0.3309
     28 N          59.0856   90.8478   11.0796 N.2     1  UNL1        0.0755
     29 N          58.6723   90.0286   12.2663 N.2     1  UNL1       -0.0367
     30 C          59.3456   88.6922   12.1641 C.2     1  UNL1        0.1389
     31 C          60.1750   88.6853   10.9143 C.3     1  UNL1        0.1779
     32 H          60.4992   91.3444    8.6008 H       1  UNL1        0.2882
     33 H          61.2647   89.8250    8.4846 H       1  UNL1        0.2882
     34 C          61.1983   85.0692    7.3258 C.3     1  UNL1        0.4186
     35 F          60.8677   84.4003    6.0246 F       1  UNL1       -0.1659
     36 F          59.7806   85.5454    7.4412 F       1  UNL1       -0.1659
     37 F          62.6159   84.5929    7.2104 F       1  UNL1       -0.1659
@<TRIPOS>BOND
     1    26    27    1
     2    27    28    2
     3    28    29    1
     4    29    30    2
     5    30    31    1
     6    31    20    1
     7    20    21   ar
     8    21    22   ar
     9    22    34    1
    10    34    35    1
    11    34    36    1
    12    34    37    1
    13    22    23   ar
    14    23    24   ar
    15    24    25   ar
    16    25     1    1
    17     1     2    1
    18     2     3   ar
    19     3     4   ar
    20     4     5    1
    21     4     6   ar
    22     6    10    1
    23    10    11    2
    24    10    12    2
    25    10    13    1
    26    13    15    1
    27    15    16   ar
    28    16    17   ar
    29    17    18   ar
    30    18    19   ar
    31     6     7   ar
    32     7     8   ar
    33     8     9    1
    34    31    27    1
    35    25    20   ar
    36     8     2   ar
    37    19    15   ar
    38    26    32    1
    39    26    33    1
    40    13    14    1
@<TRIPOS>MOLECULE
*****
 37 40 0 0 0
SMALL
GASTEIGER

@<TRIPOS>ATOM
      1 O          63.2515   85.3259   11.7664 O.3     1  UNL1       -0.4529
      2 C          62.2971   86.0076   10.8314 C.ar    1  UNL1        0.1580
      3 C          61.2320   86.9131   11.3754 C.ar    1  UNL1        0.0694
      4 C          60.2776   87.5948   10.4403 C.ar    1  UNL1        0.1620
      5 F          59.2127   88.5002   10.9843 F       1  UNL1       -0.2026
      6 C          60.3882   87.3710    8.9612 C.ar    1  UNL1        0.1535
      7 C          61.4532   86.4656    8.4172 C.ar    1  UNL1        0.0370
      8 C          62.4076   85.7839    9.3523 C.ar    1  UNL1        0.0936
      9 CL         63.4726   84.8784    8.8082 Cl      1  UNL1       -0.0790
     10 S          59.4338   88.0527    8.0261 S.O2    1  UNL1        0.0769
     11 O          58.9671   86.7168    7.5285 O.2     1  UNL1       -0.1498
     12 O          59.9005   89.3886    8.5237 O.2     1  UNL1       -0.1498
     13 N          58.4794   88.7344    7.0910 N.pl3   1  UNL1       -0.1984
     14 H          57.5340   88.4607    7.0667 H       1  UNL1        0.1753
     15 C          58.9654   89.8333    6.1930 C.ar    1  UNL1        0.1542
     16 C          58.1244   90.9255    5.6016 C.ar    1  UNL1        0.0725
     17 S          59.0169   91.8001    4.7718 S.2     1  UNL1       -0.0625
     18 C          60.4095   91.2483    4.8503 C.ar    1  UNL1        0.1360
     19 N          60.3777   90.0328    5.7286 N.ar    1  UNL1       -0.2203
     20 C          62.9437   83.4458   13.5330 C.ar    1  UNL1        0.0294
     21 C          62.7586   81.9954   13.8677 C.ar    1  UNL1        0.0035
     22 C          62.6959   80.9746   12.7705 C.ar    1  UNL1        0.0713
     23 C          62.8185   81.4042   11.3385 C.ar    1  UNL1        0.0070
     24 C          63.0037   82.8546   11.0038 C.ar    1  UNL1        0.0371
     25 C          63.0663   83.8754   12.1011 C.ar    1  UNL1        0.1422
     26 N          65.6256   84.9955   14.5605 N.pl3   1  UNL1       -0.2474
     27 C          64.2391   85.1790   15.1026 C.2     1  UNL1        0.3309
     28 N          63.8419   86.1070   16.2121 N.2     1  UNL1        0.0755
     29 N          62.3636   85.9683   16.4255 N.2     1  UNL1       -0.0367
     30 C          61.8473   84.9545   15.4479 C.2     1  UNL1        0.1389
     31 C          63.0064   84.4667   14.6303 C.3     1  UNL1        0.1779
     32 H          66.3741   85.5115   14.9383 H       1  UNL1        0.2882
     33 H          65.7872   84.3591   13.8270 H       1  UNL1        0.2882
     34 C          62.5108   79.5242   13.1051 C.3     1  UNL1        0.4186
     35 F          62.3256   78.0738   13.4398 F       1  UNL1       -0.1659
     36 F          62.3535   79.8786   14.5541 F       1  UNL1       -0.1659
     37 F          62.6680   79.1697   11.6561 F       1  UNL1       -0.1659
@<TRIPOS>BOND
     1    26    27    1
     2    27    28    2
     3    28    29    1
     4    29    30    2
     5    30    31    1
     6    31    20    1
     7    20    21   ar
     8    21    22   ar
     9    22    34    1
    10    34    35    1
    11    34    36    1
    12    34    37    1
    13    22    23   ar
    14    23    24   ar
    15    24    25   ar
    16    25     1    1
    17     1     2    1
    18     2     3   ar
    19     3     4   ar
    20     4     5    1
    21     4     6   ar
    22     6    10    1
    23    10    11    2
    24    10    12    2
    25    10    13    1
    26    13    15    1
    27    15    16   ar
    28    16    17   ar
    29    17    18   ar
    30    18    19   ar
    31     6     7   ar
    32     7     8   ar
    33     8     9    1
    34    31    27    1
    35    25    20   ar
    36     8     2   ar
    37    19    15   ar
    38    26    32    1
    39    26    33    1
    40    13    14    1
@<TRIPOS>MOLECULE
*****
 37 40 0 0 0
SMALL
GASTEIGER

@<TRIPOS>ATOM
      1 O          62.0446   87.6586   12.7293 O.3     1  UNL1       -0.4529
      2 C          62.9389   88.8603   12.6524 C.ar    1  UNL1        0.1580
      3 C          63.9710   89.0963   13.7150 C.ar    1  UNL1        0.0694
      4 C          64.8654   90.2981   13.6381 C.ar    1  UNL1        0.1620
      5 F          65.8975   90.5341   14.7006 F       1  UNL1       -0.2026
      6 C          64.7275   91.2639   12.4986 C.ar    1  UNL1        0.1535
      7 C          63.6954   91.0279   11.4361 C.ar    1  UNL1        0.0370
      8 C          62.8011   89.8261   11.5130 C.ar    1  UNL1        0.0936
      9 CL         61.7689   89.5901   10.4504 Cl      1  UNL1       -0.0790
     10 S          65.6218   92.4657   12.4217 S.O2    1  UNL1        0.0769
     11 O          65.2836   92.8083   13.8424 O.2     1  UNL1       -0.1498
     12 O          65.9601   92.1231   11.0011 O.2     1  UNL1       -0.1498
     13 N          66.5162   93.6675   12.3448 N.pl3   1  UNL1       -0.1984
     14 H          67.0162   93.9607   13.1406 H       1  UNL1        0.1753
     15 C          66.6487   94.4225   11.0554 C.ar    1  UNL1        0.1542
     16 C          65.7220   95.4937   10.5617 C.ar    1  UNL1        0.0725
     17 S          66.2316   95.9721    9.2346 S.2     1  UNL1       -0.0625
     18 C          67.4734   95.1965    8.9081 C.ar    1  UNL1        0.1360
     19 N          67.7311   94.2388   10.0334 N.ar    1  UNL1       -0.2203
     20 C          62.9077   85.2265   13.0294 C.ar    1  UNL1        0.0294
     21 C          63.3508   83.9226   12.4347 C.ar    1  UNL1        0.0035
     22 C          63.3738   83.7470   10.9453 C.ar    1  UNL1        0.0713
     23 C          62.9537   84.8752   10.0504 C.ar    1  UNL1        0.0070
     24 C          62.5106   86.1790   10.6451 C.ar    1  UNL1        0.0371
     25 C          62.4877   86.3547   12.1345 C.ar    1  UNL1        0.1422
     26 N          65.4632   85.9879   14.9108 N.pl3   1  UNL1       -0.2474
     27 C          64.0593   85.7521   15.3837 C.2     1  UNL1        0.3309
     28 N          63.5836   85.8250   16.8044 N.2     1  UNL1        0.0755
     29 N          62.1149   85.5201   16.8177 N.2     1  UNL1       -0.0367
     30 C          61.6831   85.2588   15.4052 C.2     1  UNL1        0.1389
     31 C          62.8847   85.4022   14.5189 C.3     1  UNL1        0.1779
     32 H          66.1694   86.2138   15.5585 H       1  UNL1        0.2882
     33 H          65.6784   85.9167   13.9528 H       1  UNL1        0.2882
     34 C          63.8169   82.4431   10.3505 C.3     1  UNL1        0.4186
     35 F          64.2599   81.1393    9.7559 F       1  UNL1       -0.1659
     36 F          62.8154   81.7162   11.1982 F       1  UNL1       -0.1659
     37 F          64.8184   83.1700    9.5029 F       1  UNL1       -0.1659
@<TRIPOS>BOND
     1    26    27    1
     2    27    28    2
     3    28    29    1
     4    29    30    2
     5    30    31    1
     6    31    20    1
     7    20    21   ar
     8    21    22   ar
     9    22    34    1
    10    34    35    1
    11    34    36    1
    12    34    37    1
    13    22    23   ar
    14    23    24   ar
    15    24    25   ar
    16    25     1    1
    17     1     2    1
    18     2     3   ar
    19     3     4   ar
    20     4     5    1
    21     4     6   ar
    22     6    10    1
    23    10    11    2
    24    10    12    2
    25    10    13    1
    26    13    15    1
    27    15    16   ar
    28    16    17   ar
    29    17    18   ar
    30    18    19   ar
    31     6     7   ar
    32     7     8   ar
    33     8     9    1
    34    31    27    1
    35    25    20   ar
    36     8     2   ar
    37    19    15   ar
    38    26    32    1
    39    26    33    1
    40    13    14    1
@<TRIPOS>MOLECULE
*****
 37 40 0 0 0
SMALL
GASTEIGER

@<TRIPOS>ATOM
      1 O          63.0022   86.5082   12.6177 O.3     1  UNL1       -0.4529
      2 C          63.5408   87.7755   13.2124 C.ar    1  UNL1        0.1580
      3 C          63.3698   89.0768   12.4860 C.ar    1  UNL1        0.0694
      4 C          63.9083   90.3441   13.0808 C.ar    1  UNL1        0.1620
      5 F          63.7373   91.6454   12.3545 F       1  UNL1       -0.2026
      6 C          64.6179   90.3103   14.4020 C.ar    1  UNL1        0.1535
      7 C          64.7889   89.0090   15.1283 C.ar    1  UNL1        0.0370
      8 C          64.2503   87.7417   14.5335 C.ar    1  UNL1        0.0936
      9 CL         64.4214   86.4404   15.2599 Cl      1  UNL1       -0.0790
     10 S          65.1565   91.5776   14.9968 S.O2    1  UNL1        0.0769
     11 O          64.0008   91.6203   15.9521 O.2     1  UNL1       -0.1498
     12 O          66.3121   91.5349   14.0414 O.2     1  UNL1       -0.1498
     13 N          65.6950   92.8450   15.5916 N.pl3   1  UNL1       -0.1984
     14 H          65.0787   93.5669   15.8527 H       1  UNL1        0.1753
     15 C          67.1726   93.0123   15.7884 C.ar    1  UNL1        0.1542
     16 C          67.9806   94.2200   15.4156 C.ar    1  UNL1        0.0725
     17 S          69.4090   93.9555   15.7894 S.2     1  UNL1       -0.0625
     18 C          69.4838   92.5844   16.3932 C.ar    1  UNL1        0.1360
     19 N          68.1017   92.0016   16.3926 N.ar    1  UNL1       -0.2203
     20 C          62.1802   85.4359   10.3985 C.ar    1  UNL1        0.0294
     21 C          61.3218   85.4897    9.1696 C.ar    1  UNL1        0.0035
     22 C          60.4272   86.6697    8.9308 C.ar    1  UNL1        0.0713
     23 C          60.3908   87.7959    9.9209 C.ar    1  UNL1        0.0070
     24 C          61.2492   87.7421   11.1499 C.ar    1  UNL1        0.0371
     25 C          62.1438   86.5621   11.3887 C.ar    1  UNL1        0.1422
     26 N          62.4825   83.7942   13.2027 N.pl3   1  UNL1       -0.2474
     27 C          63.2138   83.5013   11.9263 C.2     1  UNL1        0.3309
     28 N          64.2126   82.4023   11.7148 N.2     1  UNL1        0.0755
     29 N          64.6909   82.4776   10.2950 N.2     1  UNL1       -0.0367
     30 C          63.9878   83.6231    9.6292 C.2     1  UNL1        0.1389
     31 C          63.0749   84.2558   10.6374 C.3     1  UNL1        0.1779
     32 H          62.6422   83.2392   14.0001 H       1  UNL1        0.2882
     33 H          61.8428   84.5415   13.2432 H       1  UNL1        0.2882
     34 C          59.5688   86.7236    7.7018 C.3     1  UNL1        0.4186
     35 F          58.7104   86.7774    6.4729 F       1  UNL1       -0.1659
     36 F          60.1732   85.4368    7.2233 F       1  UNL1       -0.1659
     37 F          58.9644   88.0103    8.1803 F       1  UNL1       -0.1659
@<TRIPOS>BOND
     1    26    27    1
     2    27    28    2
     3    28    29    1
     4    29    30    2
     5    30    31    1
     6    31    20    1
     7    20    21   ar
     8    21    22   ar
     9    22    34    1
    10    34    35    1
    11    34    36    1
    12    34    37    1
    13    22    23   ar
    14    23    24   ar
    15    24    25   ar
    16    25     1    1
    17     1     2    1
    18     2     3   ar
    19     3     4   ar
    20     4     5    1
    21     4     6   ar
    22     6    10    1
    23    10    11    2
    24    10    12    2
    25    10    13    1
    26    13    15    1
    27    15    16   ar
    28    16    17   ar
    29    17    18   ar
    30    18    19   ar
    31     6     7   ar
    32     7     8   ar
    33     8     9    1
    34    31    27    1
    35    25    20   ar
    36     8     2   ar
    37    19    15   ar
    38    26    32    1
    39    26    33    1
    40    13    14    1
@<TRIPOS>MOLECULE
*****
 37 40 0 0 0
SMALL
GASTEIGER

@<TRIPOS>ATOM
      1 O          61.6356   87.9787   11.7492 O.3     1  UNL1       -0.4529
      2 C          62.6257   89.0712   12.0251 C.ar    1  UNL1        0.1580
      3 C          63.5175   88.9888   13.2285 C.ar    1  UNL1        0.0694
      4 C          64.5075   90.0813   13.5044 C.ar    1  UNL1        0.1620
      5 F          65.3993   89.9990   14.7077 F       1  UNL1       -0.2026
      6 C          64.6058   91.2562   12.5770 C.ar    1  UNL1        0.1535
      7 C          63.7141   91.3386   11.3737 C.ar    1  UNL1        0.0370
      8 C          62.7240   90.2460   11.0977 C.ar    1  UNL1        0.0936
      9 CL         61.8322   90.3284    9.8944 Cl      1  UNL1       -0.0790
     10 S          65.5959   92.3487   12.8529 S.O2    1  UNL1        0.0769
     11 O          65.0522   92.4902   14.2437 O.2     1  UNL1       -0.1498
     12 O          66.1396   92.2073   11.4621 O.2     1  UNL1       -0.1498
     13 N          66.5860   93.4413   13.1288 N.pl3   1  UNL1       -0.1984
     14 H          66.6201   94.2335   12.5454 H       1  UNL1        0.1753
     15 C          67.5241   93.3266   14.2937 C.ar    1  UNL1        0.1542
     16 C          68.3239   92.1134   14.6656 C.ar    1  UNL1        0.0725
     17 S          69.1212   92.4420   15.8929 S.2     1  UNL1       -0.0625
     18 C          68.8141   93.8584   16.2796 C.ar    1  UNL1        0.1360
     19 N          67.8270   94.4051   15.2913 N.ar    1  UNL1       -0.2203
     20 C          61.6757   85.8224   10.3004 C.ar    1  UNL1        0.0294
     21 C          62.1521   84.4182   10.0739 C.ar    1  UNL1        0.0035
     22 C          63.0646   83.7661   11.0698 C.ar    1  UNL1        0.0713
     23 C          63.5009   84.5181   12.2922 C.ar    1  UNL1        0.0070
     24 C          63.0245   85.9223   12.5186 C.ar    1  UNL1        0.0371
     25 C          62.1120   86.5744   11.5227 C.ar    1  UNL1        0.1422
     26 N          61.5546   85.1820    7.1027 N.pl3   1  UNL1       -0.2474
     27 C          60.7075   86.1803    7.8347 C.2     1  UNL1        0.3309
     28 N          59.6559   87.0595    7.2253 N.2     1  UNL1        0.0755
     29 N          59.0616   87.8972    8.3186 N.2     1  UNL1       -0.0367
     30 C          59.7460   87.5358    9.6035 C.2     1  UNL1        0.1389
     31 C          60.7631   86.4747    9.3044 C.3     1  UNL1        0.1779
     32 H          61.4436   85.0599    6.1321 H       1  UNL1        0.2882
     33 H          62.2216   84.6490    7.5928 H       1  UNL1        0.2882
     34 C          63.5410   82.3618   10.8433 C.3     1  UNL1        0.4186
     35 F          64.0174   80.9576   10.6169 F       1  UNL1       -0.1659
     36 F          64.6662   82.8799    9.9975 F       1  UNL1       -0.1659
     37 F          62.4158   81.8437   11.6892 F       1  UNL1       -0.1659
@<TRIPOS>BOND
     1    26    27    1
     2    27    28    2
     3    28    29    1
     4    29    30    2
     5    30    31    1
     6    31    20    1
     7    20    21   ar
     8    21    22   ar
     9    22    34    1
    10    34    35    1
    11    34    36    1
    12    34    37    1
    13    22    23   ar
    14    23    24   ar
    15    24    25   ar
    16    25     1    1
    17     1     2    1
    18     2     3   ar
    19     3     4   ar
    20     4     5    1
    21     4     6   ar
    22     6    10    1
    23    10    11    2
    24    10    12    2
    25    10    13    1
    26    13    15    1
    27    15    16   ar
    28    16    17   ar
    29    17    18   ar
    30    18    19   ar
    31     6     7   ar
    32     7     8   ar
    33     8     9    1
    34    31    27    1
    35    25    20   ar
    36     8     2   ar
    37    19    15   ar
    38    26    32    1
    39    26    33    1
    40    13    14    1
