@<TRIPOS>MOLECULE
*****
 33 37 0 0 0
SMALL
GASTEIGER

@<TRIPOS>ATOM
      1 C          60.4119   86.7410    8.0498 C.3     1  UNL1        0.0795
      2 C          59.6493   87.5337    7.0300 C.3     1  UNL1        0.0178
      3 C          59.3563   88.9845    7.2738 C.3     1  UNL1        0.0029
      4 C          59.8259   89.6425    8.5373 C.3     1  UNL1        0.0178
      5 C          60.5885   88.8497    9.5570 C.3     1  UNL1        0.0799
      6 N          60.8815   87.3990    9.3133 N.3     1  UNL1       -0.1583
      7 C          61.0582   89.5077   10.8206 C.3     1  UNL1        0.0240
      8 C          61.0175   90.1328   12.1836 C.3     1  UNL1        0.0019
      9 C          59.7519   89.6415   11.5457 C.3     1  UNL1        0.0019
     10 C          62.5275   89.6024   10.5343 C.3     1  UNL1        0.0894
     11 C          63.3995   90.4888   11.3734 C.ar    1  UNL1        0.2364
     12 N          64.1904   91.6659   10.8843 N.ar    1  UNL1       -0.1934
     13 C          64.9134   92.2582   12.0575 C.ar    1  UNL1        0.1966
     14 N          64.5693   91.4474   13.2716 N.ar    1  UNL1       -0.0592
     15 O          63.6336   90.3538   12.8488 O.2     1  UNL1       -0.3373
     16 C          65.8210   93.4519   12.0227 C.3     1  UNL1        0.1424
     17 N          66.7407   93.6612   10.8563 N.3     1  UNL1       -0.2662
     18 C          66.9703   94.9566   10.1357 C.3     1  UNL1        0.0725
     19 C          67.9636   94.7077    9.0398 C.3     1  UNL1        0.0188
     20 C          68.3481   93.2585    9.0829 C.3     1  UNL1        0.0188
     21 C          67.5922   92.6116   10.2056 C.3     1  UNL1        0.0725
     22 S          61.6442   86.6062   10.3331 S.O2    1  UNL1        0.0632
     23 O          62.8232   86.5498    9.4075 O.2     1  UNL1       -0.1528
     24 O          60.7806   86.4828   11.3634 O.2     1  UNL1       -0.1528
     25 C          62.4068   85.8135   11.3528 C.ar    1  UNL1        0.1222
     26 C          63.0348   86.5068   12.5254 C.ar    1  UNL1        0.0208
     27 C          63.7974   85.7141   13.5452 C.ar    1  UNL1        0.0128
     28 C          63.9321   84.2280   13.3924 C.ar    1  UNL1        0.0578
     29 CL         64.6948   83.4352   14.4121 Cl      1  UNL1       -0.0822
     30 C          63.3042   83.5346   12.2198 C.ar    1  UNL1        0.0128
     31 C          62.5415   84.3273   11.2000 C.ar    1  UNL1        0.0208
     32 C          61.6103   84.8868    6.6802 C.3     1  UNL1        0.0015
     33 C          60.7049   85.2902    7.8060 C.3     1  UNL1        0.0177
@<TRIPOS>BOND
     1    32    33    1
     2     1    33    1
     3     1     2    1
     4     2     3    1
     5     3     4    1
     6     4     5    1
     7     5     7    1
     8     7    10    1
     9    10    11    1
    10    11    12   ar
    11    12    13   ar
    12    13    16    1
    13    16    17    1
    14    17    18    1
    15    18    19    1
    16    19    20    1
    17    20    21    1
    18    13    14   ar
    19    14    15   ar
    20     7     8    1
    21     8     9    1
    22     5     6    1
    23     6    22    1
    24    22    23    2
    25    22    24    2
    26    22    25    1
    27    25    26   ar
    28    26    27   ar
    29    27    28   ar
    30    28    29    1
    31    28    30   ar
    32    30    31   ar
    33     6     1    1
    34    31    25   ar
    35     9     7    1
    36    15    11   ar
    37    21    17    1
@<TRIPOS>MOLECULE
*****
 33 37 0 0 0
SMALL
GASTEIGER

@<TRIPOS>ATOM
      1 C          60.3376   86.7561    7.8840 C.3     1  UNL1        0.0795
      2 C          59.5375   87.5056    6.8604 C.3     1  UNL1        0.0178
      3 C          59.2187   88.9559    7.0726 C.3     1  UNL1        0.0029
      4 C          59.7001   89.6567    8.3084 C.3     1  UNL1        0.0178
      5 C          60.5002   88.9071    9.3320 C.3     1  UNL1        0.0799
      6 N          60.8190   87.4568    9.1198 N.3     1  UNL1       -0.1583
      7 C          60.9816   89.6078   10.5679 C.3     1  UNL1        0.0240
      8 C          60.9936   90.1514   11.9658 C.3     1  UNL1        0.0019
      9 C          59.7970   89.3987   11.4640 C.3     1  UNL1        0.0019
     10 C          62.3334   90.0601   10.1009 C.3     1  UNL1        0.0894
     11 C          63.3222   90.6091   11.0862 C.ar    1  UNL1        0.2364
     12 N          64.2530   91.7620   10.8520 N.ar    1  UNL1       -0.1934
     13 C          65.0599   91.9670   12.0997 C.ar    1  UNL1        0.1966
     14 N          64.6280   90.9409   13.1049 N.ar    1  UNL1       -0.0592
     15 O          63.5540   90.1017   12.4785 O.2     1  UNL1       -0.3373
     16 C          66.1138   93.0143   12.3059 C.3     1  UNL1        0.1424
     17 N          66.9893   92.9678   13.5230 N.3     1  UNL1       -0.2662
     18 C          66.8806   93.8624   14.7221 C.3     1  UNL1        0.0725
     19 C          67.9513   93.4661   15.6948 C.3     1  UNL1        0.0188
     20 C          68.7220   92.3265   15.0970 C.3     1  UNL1        0.0188
     21 C          68.1274   92.0186   13.7546 C.3     1  UNL1        0.0725
     22 S          61.6191   86.7072   10.1435 S.O2    1  UNL1        0.0632
     23 O          62.8555   86.8965    9.3156 O.2     1  UNL1       -0.1528
     24 O          60.7136   86.3787   11.0894 O.2     1  UNL1       -0.1528
     25 C          62.4193   85.9577   11.1672 C.ar    1  UNL1        0.1222
     26 C          62.8834   86.6530   12.4127 C.ar    1  UNL1        0.0208
     27 C          63.6836   85.9035   13.4363 C.ar    1  UNL1        0.0128
     28 C          64.0197   84.4586   13.2145 C.ar    1  UNL1        0.0578
     29 CL         64.8199   83.7090   14.2381 Cl      1  UNL1       -0.0822
     30 C          63.5557   83.7632   11.9691 C.ar    1  UNL1        0.0128
     31 C          62.7555   84.5127   10.9454 C.ar    1  UNL1        0.0208
     32 C          61.6762   84.9040    6.6479 C.3     1  UNL1        0.0015
     33 C          60.6564   85.3058    7.6719 C.3     1  UNL1        0.0177
@<TRIPOS>BOND
     1    32    33    1
     2     1    33    1
     3     1     2    1
     4     2     3    1
     5     3     4    1
     6     4     5    1
     7     5     7    1
     8     7    10    1
     9    10    11    1
    10    11    12   ar
    11    12    13   ar
    12    13    16    1
    13    16    17    1
    14    17    18    1
    15    18    19    1
    16    19    20    1
    17    20    21    1
    18    13    14   ar
    19    14    15   ar
    20     7     8    1
    21     8     9    1
    22     5     6    1
    23     6    22    1
    24    22    23    2
    25    22    24    2
    26    22    25    1
    27    25    26   ar
    28    26    27   ar
    29    27    28   ar
    30    28    29    1
    31    28    30   ar
    32    30    31   ar
    33     6     1    1
    34    31    25   ar
    35     9     7    1
    36    15    11   ar
    37    21    17    1
@<TRIPOS>MOLECULE
*****
 33 37 0 0 0
SMALL
GASTEIGER

@<TRIPOS>ATOM
      1 C          65.2688   91.7441   12.6554 C.3     1  UNL1        0.0795
      2 C          65.5193   92.6286   11.4700 C.3     1  UNL1        0.0178
      3 C          64.6263   92.5423   10.2679 C.3     1  UNL1        0.0029
      4 C          63.4829   91.5716   10.2510 C.3     1  UNL1        0.0178
      5 C          63.2325   90.6871   11.4363 C.3     1  UNL1        0.0799
      6 N          64.1254   90.7734   12.6385 N.3     1  UNL1       -0.1583
      7 C          62.0890   89.7164   11.4195 C.3     1  UNL1        0.0240
      8 C          60.7354   89.1280   11.6872 C.3     1  UNL1        0.0019
      9 C          61.0867   90.4804   12.2329 C.3     1  UNL1        0.0019
     10 C          62.6943   88.6153   10.6003 C.3     1  UNL1        0.0894
     11 C          62.5360   87.1869   11.0301 C.ar    1  UNL1        0.2364
     12 N          62.9289   86.6179   12.3612 N.ar    1  UNL1       -0.1934
     13 C          62.5927   85.1561   12.3580 C.ar    1  UNL1        0.1966
     14 N          61.9920   84.8216   11.0248 N.ar    1  UNL1       -0.0592
     15 O          61.9570   86.0767   10.2041 O.2     1  UNL1       -0.3373
     16 C          62.8177   84.1972   13.4892 C.3     1  UNL1        0.1424
     17 N          62.6046   82.7272   13.2801 N.3     1  UNL1       -0.2662
     18 C          61.7528   81.8301   14.1284 C.3     1  UNL1        0.0725
     19 C          61.8277   80.4448   13.5585 C.3     1  UNL1        0.0188
     20 C          62.7258   80.4854   12.3578 C.3     1  UNL1        0.0188
     21 C          63.2060   81.8961   12.1857 C.3     1  UNL1        0.0725
     22 S          63.8749   89.8890   13.8239 S.O2    1  UNL1        0.0632
     23 O          63.1678   91.0165   14.5157 O.2     1  UNL1       -0.1528
     24 O          64.4378   88.7117   13.4778 O.2     1  UNL1       -0.1528
     25 C          63.6244   89.0046   15.0092 C.ar    1  UNL1        0.1222
     26 C          63.0106   89.5743   16.2537 C.ar    1  UNL1        0.0208
     27 C          62.7600   88.6899   17.4390 C.ar    1  UNL1        0.0128
     28 C          63.1233   87.2358   17.3799 C.ar    1  UNL1        0.0578
     29 CL         62.8728   86.3514   18.5652 Cl      1  UNL1       -0.0822
     30 C          63.7370   86.6660   16.1355 C.ar    1  UNL1        0.0128
     31 C          63.9876   87.5504   14.9501 C.ar    1  UNL1        0.0208
     32 C          67.6510   91.8731   13.6841 C.3     1  UNL1        0.0015
     33 C          66.1617   91.8304   13.8575 C.3     1  UNL1        0.0177
@<TRIPOS>BOND
     1    32    33    1
     2     1    33    1
     3     1     2    1
     4     2     3    1
     5     3     4    1
     6     4     5    1
     7     5     7    1
     8     7    10    1
     9    10    11    1
    10    11    12   ar
    11    12    13   ar
    12    13    16    1
    13    16    17    1
    14    17    18    1
    15    18    19    1
    16    19    20    1
    17    20    21    1
    18    13    14   ar
    19    14    15   ar
    20     7     8    1
    21     8     9    1
    22     5     6    1
    23     6    22    1
    24    22    23    2
    25    22    24    2
    26    22    25    1
    27    25    26   ar
    28    26    27   ar
    29    27    28   ar
    30    28    29    1
    31    28    30   ar
    32    30    31   ar
    33     6     1    1
    34    31    25   ar
    35     9     7    1
    36    15    11   ar
    37    21    17    1
@<TRIPOS>MOLECULE
*****
 33 37 0 0 0
SMALL
GASTEIGER

@<TRIPOS>ATOM
      1 C          59.9137   88.8088    8.8664 C.3     1  UNL1        0.0795
      2 C          59.0059   88.2325    7.8205 C.3     1  UNL1        0.0178
      3 C          59.1789   86.8095    7.3787 C.3     1  UNL1        0.0029
      4 C          60.2597   85.9628    7.9828 C.3     1  UNL1        0.0178
      5 C          61.1674   86.5390    9.0287 C.3     1  UNL1        0.0799
      6 N          60.9945   87.9620    9.4704 N.3     1  UNL1       -0.1583
      7 C          62.2482   85.6923    9.6328 C.3     1  UNL1        0.0240
      8 C          63.5696   85.0029    9.8026 C.3     1  UNL1        0.0019
      9 C          63.3164   85.8514    8.5917 C.3     1  UNL1        0.0019
     10 C          61.5554   85.2391   10.8836 C.3     1  UNL1        0.0894
     11 C          62.3489   84.6323   12.0027 C.ar    1  UNL1        0.2364
     12 N          62.7328   85.3145   13.2823 N.ar    1  UNL1       -0.1934
     13 C          63.5189   84.3407   14.1090 C.ar    1  UNL1        0.1966
     14 N          63.6210   83.0566   13.3404 N.ar    1  UNL1       -0.0592
     15 O          62.8978   83.2369   12.0386 O.2     1  UNL1       -0.3373
     16 C          64.1009   84.6045   15.4661 C.3     1  UNL1        0.1424
     17 N          63.5617   85.7219   16.3091 N.3     1  UNL1       -0.2662
     18 C          62.6439   85.5744   17.4864 C.3     1  UNL1        0.0725
     19 C          62.3606   86.9443   18.0278 C.3     1  UNL1        0.0188
     20 C          63.1033   87.9384   17.1851 C.3     1  UNL1        0.0188
     21 C          63.8456   87.1829   16.1229 C.3     1  UNL1        0.0725
     22 S          61.9023   88.5383   10.5163 S.O2    1  UNL1        0.0632
     23 O          61.0129   87.9879   11.5915 O.2     1  UNL1       -0.1528
     24 O          62.8766   89.1444    9.8051 O.2     1  UNL1       -0.1528
     25 C          62.8101   89.1145   11.5622 C.ar    1  UNL1        0.1222
     26 C          63.3435   88.2390   12.6573 C.ar    1  UNL1        0.0208
     27 C          64.2513   88.8151   13.7031 C.ar    1  UNL1        0.0128
     28 C          64.6257   90.2668   13.6541 C.ar    1  UNL1        0.0578
     29 CL         65.5334   90.8430   14.6999 Cl      1  UNL1       -0.0822
     30 C          64.0923   91.1423   12.5591 C.ar    1  UNL1        0.0128
     31 C          63.1845   90.5662   11.5132 C.ar    1  UNL1        0.0208
     32 C          59.4278   90.5390   10.7425 C.3     1  UNL1        0.0015
     33 C          59.7407   90.2318    9.3081 C.3     1  UNL1        0.0177
@<TRIPOS>BOND
     1    32    33    1
     2     1    33    1
     3     1     2    1
     4     2     3    1
     5     3     4    1
     6     4     5    1
     7     5     7    1
     8     7    10    1
     9    10    11    1
    10    11    12   ar
    11    12    13   ar
    12    13    16    1
    13    16    17    1
    14    17    18    1
    15    18    19    1
    16    19    20    1
    17    20    21    1
    18    13    14   ar
    19    14    15   ar
    20     7     8    1
    21     8     9    1
    22     5     6    1
    23     6    22    1
    24    22    23    2
    25    22    24    2
    26    22    25    1
    27    25    26   ar
    28    26    27   ar
    29    27    28   ar
    30    28    29    1
    31    28    30   ar
    32    30    31   ar
    33     6     1    1
    34    31    25   ar
    35     9     7    1
    36    15    11   ar
    37    21    17    1
@<TRIPOS>MOLECULE
*****
 33 37 0 0 0
SMALL
GASTEIGER

@<TRIPOS>ATOM
      1 C          60.4980   86.4704    7.4320 C.3     1  UNL1        0.0795
      2 C          59.7165   87.3030    6.4593 C.3     1  UNL1        0.0178
      3 C          59.2788   88.6866    6.8387 C.3     1  UNL1        0.0029
      4 C          59.6225   89.2377    8.1908 C.3     1  UNL1        0.0178
      5 C          60.4040   88.4052    9.1634 C.3     1  UNL1        0.0799
      6 N          60.8417   87.0215    8.7841 N.3     1  UNL1       -0.1583
      7 C          60.7478   88.9563   10.5156 C.3     1  UNL1        0.0240
      8 C          60.5988   89.3611   11.9522 C.3     1  UNL1        0.0019
      9 C          59.4482   88.7267   11.2286 C.3     1  UNL1        0.0019
     10 C          62.1667   89.3772   10.2721 C.3     1  UNL1        0.0894
     11 C          63.0127   89.8582   11.4136 C.ar    1  UNL1        0.2364
     12 N          63.2948   89.1058   12.6802 N.ar    1  UNL1       -0.1934
     13 C          64.1815   89.9586   13.5383 C.ar    1  UNL1        0.1966
     14 N          64.4474   91.2382   12.8021 N.ar    1  UNL1       -0.0592
     15 O          63.7250   91.1761   11.4889 O.2     1  UNL1       -0.3373
     16 C          64.7096   89.5956   14.8945 C.3     1  UNL1        0.1424
     17 N          64.0448   88.5141   15.6935 N.3     1  UNL1       -0.2662
     18 C          64.1999   87.0376   15.4795 C.3     1  UNL1        0.0725
     19 C          63.3592   86.3303   16.5005 C.3     1  UNL1        0.0188
     20 C          62.6843   87.3696   17.3457 C.3     1  UNL1        0.0188
     21 C          63.1080   88.7193   16.8470 C.3     1  UNL1        0.0725
     22 S          61.6232   86.1890    9.7568 S.O2    1  UNL1        0.0632
     23 O          60.3509   85.8115   10.4558 O.2     1  UNL1       -0.1528
     24 O          62.9045   86.3374    9.3582 O.2     1  UNL1       -0.1528
     25 C          62.4046   85.3565   10.7295 C.ar    1  UNL1        0.1222
     26 C          63.2287   84.2037   10.2375 C.ar    1  UNL1        0.0208
     27 C          64.0101   83.3711   11.2102 C.ar    1  UNL1        0.0128
     28 C          63.9675   83.6913   12.6750 C.ar    1  UNL1        0.0578
     29 CL         64.7489   82.8588   13.6477 Cl      1  UNL1       -0.0822
     30 C          63.1435   84.8441   13.1671 C.ar    1  UNL1        0.0128
     31 C          62.3621   85.6767   12.1943 C.ar    1  UNL1        0.0208
     32 C          62.2103   84.8867    6.2876 C.3     1  UNL1        0.0015
     33 C          60.9357   85.0868    7.0526 C.3     1  UNL1        0.0177
@<TRIPOS>BOND
     1    32    33    1
     2     1    33    1
     3     1     2    1
     4     2     3    1
     5     3     4    1
     6     4     5    1
     7     5     7    1
     8     7    10    1
     9    10    11    1
    10    11    12   ar
    11    12    13   ar
    12    13    16    1
    13    16    17    1
    14    17    18    1
    15    18    19    1
    16    19    20    1
    17    20    21    1
    18    13    14   ar
    19    14    15   ar
    20     7     8    1
    21     8     9    1
    22     5     6    1
    23     6    22    1
    24    22    23    2
    25    22    24    2
    26    22    25    1
    27    25    26   ar
    28    26    27   ar
    29    27    28   ar
    30    28    29    1
    31    28    30   ar
    32    30    31   ar
    33     6     1    1
    34    31    25   ar
    35     9     7    1
    36    15    11   ar
    37    21    17    1
@<TRIPOS>MOLECULE
*****
 33 37 0 0 0
SMALL
GASTEIGER

@<TRIPOS>ATOM
      1 C          63.4845   84.1948   10.1858 C.3     1  UNL1        0.0795
      2 C          63.4292   84.0444    8.6945 C.3     1  UNL1        0.0178
      3 C          62.7734   85.1026    7.8577 C.3     1  UNL1        0.0029
      4 C          62.1730   86.3113    8.5123 C.3     1  UNL1        0.0178
      5 C          62.2283   86.4617   10.0037 C.3     1  UNL1        0.0799
      6 N          62.8841   85.4035   10.8404 N.3     1  UNL1       -0.1583
      7 C          61.6279   87.6704   10.6584 C.3     1  UNL1        0.0240
      8 C          60.6720   88.5207   11.4414 C.3     1  UNL1        0.0019
      9 C          60.3956   87.0582   11.2555 C.3     1  UNL1        0.0019
     10 C          62.6517   88.7024   10.2886 C.3     1  UNL1        0.0894
     11 C          63.0666   89.7397   11.2896 C.ar    1  UNL1        0.2364
     12 N          63.5150   89.4773   12.6969 N.ar    1  UNL1       -0.1934
     13 C          63.8313   90.7968   13.3362 C.ar    1  UNL1        0.1966
     14 N          63.5785   91.8747   12.3241 N.ar    1  UNL1       -0.0592
     15 O          63.1058   91.2213   11.0593 O.2     1  UNL1       -0.3373
     16 C          64.3156   91.0023   14.7409 C.3     1  UNL1        0.1424
     17 N          65.6456   91.6502   14.9885 N.3     1  UNL1       -0.2662
     18 C          66.8398   91.5861   14.0832 C.3     1  UNL1        0.0725
     19 C          67.9472   92.3722   14.7201 C.3     1  UNL1        0.0188
     20 C          67.4373   92.9222   16.0192 C.3     1  UNL1        0.0188
     21 C          66.0149   92.4759   16.1851 C.3     1  UNL1        0.0725
     22 S          62.9394   85.5540   12.3319 S.O2    1  UNL1        0.0632
     23 O          61.9672   84.4217   12.4822 O.2     1  UNL1       -0.1528
     24 O          63.8004   86.5756   12.5254 O.2     1  UNL1       -0.1528
     25 C          62.9947   85.7045   13.8233 C.ar    1  UNL1        0.1222
     26 C          63.8341   86.7854   14.4375 C.ar    1  UNL1        0.0208
     27 C          63.8894   86.9358   15.9288 C.ar    1  UNL1        0.0128
     28 C          63.1053   86.0055   16.8061 C.ar    1  UNL1        0.0578
     29 CL         63.1606   86.1560   18.2975 Cl      1  UNL1       -0.0822
     30 C          62.2659   84.9247   16.1920 C.ar    1  UNL1        0.0128
     31 C          62.2106   84.7742   14.7005 C.ar    1  UNL1        0.0208
     32 C          63.6254   81.7282   10.9894 C.3     1  UNL1        0.0015
     33 C          64.1403   83.1366   11.0226 C.3     1  UNL1        0.0177
@<TRIPOS>BOND
     1    32    33    1
     2     1    33    1
     3     1     2    1
     4     2     3    1
     5     3     4    1
     6     4     5    1
     7     5     7    1
     8     7    10    1
     9    10    11    1
    10    11    12   ar
    11    12    13   ar
    12    13    16    1
    13    16    17    1
    14    17    18    1
    15    18    19    1
    16    19    20    1
    17    20    21    1
    18    13    14   ar
    19    14    15   ar
    20     7     8    1
    21     8     9    1
    22     5     6    1
    23     6    22    1
    24    22    23    2
    25    22    24    2
    26    22    25    1
    27    25    26   ar
    28    26    27   ar
    29    27    28   ar
    30    28    29    1
    31    28    30   ar
    32    30    31   ar
    33     6     1    1
    34    31    25   ar
    35     9     7    1
    36    15    11   ar
    37    21    17    1
@<TRIPOS>MOLECULE
*****
 33 37 0 0 0
SMALL
GASTEIGER

@<TRIPOS>ATOM
      1 C          60.5578   87.4191    8.9997 C.3     1  UNL1        0.0795
      2 C          60.0700   88.6992    8.3886 C.3     1  UNL1        0.0178
      3 C          60.4761   90.0158    8.9815 C.3     1  UNL1        0.0029
      4 C          61.3699   90.0524   10.1855 C.3     1  UNL1        0.0178
      5 C          61.8577   88.7723   10.7966 C.3     1  UNL1        0.0799
      6 N          61.4517   87.4557   10.2037 N.3     1  UNL1       -0.1583
      7 C          62.7517   88.8089   12.0006 C.3     1  UNL1        0.0240
      8 C          63.7476   88.3651   13.0307 C.3     1  UNL1        0.0019
      9 C          63.3560   87.4385   11.9180 C.3     1  UNL1        0.0019
     10 C          62.4577   90.1920   12.5013 C.3     1  UNL1        0.0894
     11 C          63.5773   91.0739   12.9690 C.ar    1  UNL1        0.2364
     12 N          64.5312   91.8283   12.0910 N.ar    1  UNL1       -0.1934
     13 C          65.4829   92.5770   12.9762 C.ar    1  UNL1        0.1966
     14 N          65.1172   92.2853   14.4014 N.ar    1  UNL1       -0.0592
     15 O          63.9394   91.3564   14.3970 O.2     1  UNL1       -0.3373
     16 C          66.6036   93.4619   12.5169 C.3     1  UNL1        0.1424
     17 N          67.1824   93.2878   11.1441 N.3     1  UNL1       -0.2662
     18 C          67.0841   94.2700   10.0146 C.3     1  UNL1        0.0725
     19 C          67.8021   93.6902    8.8322 C.3     1  UNL1        0.0188
     20 C          68.3442   92.3495    9.2308 C.3     1  UNL1        0.0188
     21 C          67.9612   92.1009   10.6597 C.3     1  UNL1        0.0725
     22 S          61.9395   86.1756   10.8148 S.O2    1  UNL1        0.0632
     23 O          60.9531   86.3339   11.9337 O.2     1  UNL1       -0.1528
     24 O          62.9071   85.7587    9.9708 O.2     1  UNL1       -0.1528
     25 C          62.4273   84.8956   11.4259 C.ar    1  UNL1        0.1222
     26 C          62.2555   84.6531   12.8963 C.ar    1  UNL1        0.0208
     27 C          62.7432   83.3731   13.5074 C.ar    1  UNL1        0.0128
     28 C          63.4029   82.3354   12.6483 C.ar    1  UNL1        0.0578
     29 CL         63.8907   81.0554   13.2594 Cl      1  UNL1       -0.0822
     30 C          63.5748   82.5778   11.1780 C.ar    1  UNL1        0.0128
     31 C          63.0870   83.8579   10.5668 C.ar    1  UNL1        0.0208
     32 C          60.8682   85.5699    7.2014 C.3     1  UNL1        0.0015
     33 C          60.1517   86.1025    8.4068 C.3     1  UNL1        0.0177
@<TRIPOS>BOND
     1    32    33    1
     2     1    33    1
     3     1     2    1
     4     2     3    1
     5     3     4    1
     6     4     5    1
     7     5     7    1
     8     7    10    1
     9    10    11    1
    10    11    12   ar
    11    12    13   ar
    12    13    16    1
    13    16    17    1
    14    17    18    1
    15    18    19    1
    16    19    20    1
    17    20    21    1
    18    13    14   ar
    19    14    15   ar
    20     7     8    1
    21     8     9    1
    22     5     6    1
    23     6    22    1
    24    22    23    2
    25    22    24    2
    26    22    25    1
    27    25    26   ar
    28    26    27   ar
    29    27    28   ar
    30    28    29    1
    31    28    30   ar
    32    30    31   ar
    33     6     1    1
    34    31    25   ar
    35     9     7    1
    36    15    11   ar
    37    21    17    1
@<TRIPOS>MOLECULE
*****
 33 37 0 0 0
SMALL
GASTEIGER

@<TRIPOS>ATOM
      1 C          60.9509   92.7301    2.3966 C.3     1  UNL1        0.0795
      2 C          62.1314   92.1192    3.0917 C.3     1  UNL1        0.0178
      3 C          63.5115   92.3129    2.5368 C.3     1  UNL1        0.0029
      4 C          63.7110   93.1175    1.2867 C.3     1  UNL1        0.0178
      5 C          62.5305   93.7284    0.5916 C.3     1  UNL1        0.0799
      6 N          61.1505   93.5347    1.1466 N.3     1  UNL1       -0.1583
      7 C          62.7300   94.5331   -0.6586 C.3     1  UNL1        0.0240
      8 C          63.0167   95.7050   -1.5498 C.3     1  UNL1        0.0019
      9 C          63.0505   95.8703   -0.0593 C.3     1  UNL1        0.0019
     10 C          62.4787   93.4753   -1.6919 C.3     1  UNL1        0.0894
     11 C          61.9726   93.8595   -3.0508 C.ar    1  UNL1        0.2364
     12 N          60.5886   94.3401   -3.3727 N.ar    1  UNL1       -0.1934
     13 C          60.5222   94.6082   -4.8470 C.ar    1  UNL1        0.1966
     14 N          61.8652   94.2932   -5.4363 N.ar    1  UNL1       -0.0592
     15 O          62.7615   93.8304   -4.3261 O.2     1  UNL1       -0.3373
     16 C          59.3234   95.1041   -5.5999 C.3     1  UNL1        0.1424
     17 N          57.9745   94.5000   -5.3444 N.3     1  UNL1       -0.2662
     18 C          56.6593   95.2178   -5.4140 C.3     1  UNL1        0.0725
     19 C          55.5759   94.2334   -5.0870 C.3     1  UNL1        0.0188
     20 C          56.2214   92.9070   -4.8153 C.3     1  UNL1        0.0188
     21 C          57.7039   93.0717   -4.9743 C.3     1  UNL1        0.0725
     22 S          59.9699   94.1456    0.4514 S.O2    1  UNL1        0.0632
     23 O          59.7413   92.8612   -0.2889 O.2     1  UNL1       -0.1528
     24 O          59.9126   95.4002    0.9465 O.2     1  UNL1       -0.1528
     25 C          58.7894   94.7564   -0.2438 C.ar    1  UNL1        0.1222
     26 C          58.7037   96.2449   -0.4087 C.ar    1  UNL1        0.0208
     27 C          57.5233   96.8558   -1.1038 C.ar    1  UNL1        0.0128
     28 C          56.4284   95.9782   -1.6341 C.ar    1  UNL1        0.0578
     29 CL         55.2480   96.5891   -2.3293 Cl      1  UNL1       -0.0822
     30 C          56.5141   94.4898   -1.4693 C.ar    1  UNL1        0.0128
     31 C          57.6946   93.8789   -0.7741 C.ar    1  UNL1        0.0208
     32 C          59.3819   92.2697    4.4155 C.3     1  UNL1        0.0015
     33 C          59.5709   92.5363    2.9516 C.3     1  UNL1        0.0177
@<TRIPOS>BOND
     1    32    33    1
     2     1    33    1
     3     1     2    1
     4     2     3    1
     5     3     4    1
     6     4     5    1
     7     5     7    1
     8     7    10    1
     9    10    11    1
    10    11    12   ar
    11    12    13   ar
    12    13    16    1
    13    16    17    1
    14    17    18    1
    15    18    19    1
    16    19    20    1
    17    20    21    1
    18    13    14   ar
    19    14    15   ar
    20     7     8    1
    21     8     9    1
    22     5     6    1
    23     6    22    1
    24    22    23    2
    25    22    24    2
    26    22    25    1
    27    25    26   ar
    28    26    27   ar
    29    27    28   ar
    30    28    29    1
    31    28    30   ar
    32    30    31   ar
    33     6     1    1
    34    31    25   ar
    35     9     7    1
    36    15    11   ar
    37    21    17    1
