@<TRIPOS>MOLECULE
*****
 34 37 0 0 0
SMALL
GASTEIGER

@<TRIPOS>ATOM
      1 C          63.5891   89.9174   15.5149 C.2     1  UNL1        0.2301
      2 O          63.0857   90.6502   16.7231 O.2     1  UNL1       -0.2745
      3 N          63.7508   88.4267   15.5553 N.am    1  UNL1       -0.2792
      4 C          63.4092   87.6688   16.8037 C.3     1  UNL1        0.0951
      5 C          63.5710   86.1781   16.8441 C.3     1  UNL1        0.0410
      6 C          64.0744   85.4453   15.6359 C.3     1  UNL1        0.0724
      7 C          64.4160   86.2033   14.3873 C.3     1  UNL1        0.0410
      8 C          64.2542   87.6940   14.3470 C.3     1  UNL1        0.0951
      9 N          64.2361   83.9546   15.6763 N.pl3   1  UNL1       -0.3339
     10 H          64.7519   83.5349   16.4023 H       1  UNL1        0.1468
     11 C          63.6121   83.1034   14.6105 C.ar    1  UNL1        0.0453
     12 C          64.2598   82.9956   13.2619 C.ar    1  UNL1        0.0143
     13 C          63.6358   82.1443   12.1960 C.ar    1  UNL1        0.0020
     14 C          62.3640   81.4009   12.4788 C.ar    1  UNL1        0.0104
     15 C          61.7163   81.5087   13.8275 C.ar    1  UNL1        0.0697
     16 C          62.3404   82.3600   14.8933 C.ar    1  UNL1        0.0246
     17 C          60.4446   80.7653   14.1104 C.1     1  UNL1        0.1005
     18 N          59.1728   80.0219   14.3932 N.1     1  UNL1       -0.1908
     19 C          63.9307   90.6754   14.2663 C.3     1  UNL1        0.1116
     20 C          61.4865   90.0827   10.5347 C.ar    1  UNL1       -0.0062
     21 C          62.8383   90.7276   10.4513 C.ar    1  UNL1       -0.0032
     22 C          63.6530   90.9252   11.6952 C.ar    1  UNL1       -0.0041
     23 C          63.1160   90.4778   13.0225 C.ar    1  UNL1       -0.0131
     24 C          61.7642   89.8330   13.1058 C.ar    1  UNL1       -0.0041
     25 C          60.9495   89.6354   11.8619 C.ar    1  UNL1       -0.0032
     26 C          60.6718   89.8852    9.2909 C.3     1  UNL1        0.0992
     27 C          62.4114   85.0483    8.5301 C.3     1  UNL1        0.0186
     28 C          61.3442   86.0876    8.3545 C.3     1  UNL1        0.0703
     29 C          61.5415   87.4667    8.9105 C.3     1  UNL1        0.0882
     30 N          60.4744   88.5060    8.7348 N.3     1  UNL1       -0.2666
     31 C          59.2098   88.1664    8.0031 C.3     1  UNL1        0.0897
     32 C          59.0125   86.7873    7.4470 C.3     1  UNL1        0.0861
     33 N          60.0796   85.7480    7.6227 N.3     1  UNL1       -0.2963
     34 H          60.3527   85.4453    6.6877 H       1  UNL1        0.1233
@<TRIPOS>BOND
     1    28    27    1
     2    28    29    1
     3    29    30    1
     4    30    26    1
     5    26    20    1
     6    20    21   ar
     7    21    22   ar
     8    22    23   ar
     9    23    19    1
    10    19     1    1
    11     1     2    2
    12     1     3   am
    13     3     4    1
    14     4     5    1
    15     5     6    1
    16     6     9    1
    17     9    11    1
    18    11    12   ar
    19    12    13   ar
    20    13    14   ar
    21    14    15   ar
    22    15    17    1
    23    17    18    3
    24    15    16   ar
    25     6     7    1
    26     7     8    1
    27    23    24   ar
    28    24    25   ar
    29    30    31    1
    30    31    32    1
    31    32    33    1
    32    33    28    1
    33    25    20   ar
    34     8     3    1
    35    16    11   ar
    36     9    10    1
    37    33    34    1
@<TRIPOS>MOLECULE
*****
 34 37 0 0 0
SMALL
GASTEIGER

@<TRIPOS>ATOM
      1 C          60.8849   88.7596    9.7632 C.2     1  UNL1        0.2301
      2 O          60.2249   89.1849    8.4851 O.2     1  UNL1       -0.2745
      3 N          61.5216   87.4052    9.8639 N.am    1  UNL1       -0.2792
      4 C          61.4982   86.4760    8.6866 C.3     1  UNL1        0.0951
      5 C          62.1348   85.1216    8.7874 C.3     1  UNL1        0.0410
      6 C          62.7948   84.6963   10.0654 C.3     1  UNL1        0.0724
      7 C          62.8183   85.6254   11.2428 C.3     1  UNL1        0.0410
      8 C          62.1816   86.9799   11.1420 C.3     1  UNL1        0.0951
      9 N          63.4315   83.3418   10.1661 N.pl3   1  UNL1       -0.3339
     10 H          63.8549   82.9368    9.3750 H       1  UNL1        0.1468
     11 C          63.4231   82.6044   11.4723 C.ar    1  UNL1        0.0453
     12 C          64.7051   82.3902   12.2209 C.ar    1  UNL1        0.0143
     13 C          64.6968   81.6528   13.5271 C.ar    1  UNL1        0.0020
     14 C          63.4063   81.1296   14.0847 C.ar    1  UNL1        0.0104
     15 C          62.1242   81.3438   13.3361 C.ar    1  UNL1        0.0697
     16 C          62.1326   82.0812   12.0299 C.ar    1  UNL1        0.0246
     17 C          60.8337   80.8206   13.8937 C.1     1  UNL1        0.1005
     18 N          59.5432   80.2975   14.4514 N.1     1  UNL1       -0.1908
     19 C          60.9083   89.6888   10.9405 C.3     1  UNL1        0.1116
     20 C          64.6874   91.8946   11.9911 C.ar    1  UNL1       -0.0062
     21 C          63.9688   91.0966   13.0386 C.ar    1  UNL1       -0.0032
     22 C          62.7092   90.3613   12.6884 C.ar    1  UNL1       -0.0041
     23 C          62.1680   90.4241   11.2907 C.ar    1  UNL1       -0.0131
     24 C          62.8865   91.2220   10.2434 C.ar    1  UNL1       -0.0041
     25 C          64.1462   91.9573   10.5936 C.ar    1  UNL1       -0.0032
     26 C          65.9470   92.6298   12.3413 C.3     1  UNL1        0.0992
     27 C          67.2089   96.8560    9.5941 C.3     1  UNL1        0.0186
     28 C          67.3896   95.3964    9.8887 C.3     1  UNL1        0.0703
     29 C          66.5780   94.7429   10.9677 C.3     1  UNL1        0.0882
     30 N          66.7587   93.2833   11.2623 N.3     1  UNL1       -0.2666
     31 C          67.7510   92.4771   10.4779 C.3     1  UNL1        0.0897
     32 C          68.5626   93.1305    9.3989 C.3     1  UNL1        0.0861
     33 N          68.3819   94.5902    9.1043 N.3     1  UNL1       -0.2963
     34 H          68.1097   94.6612    8.1238 H       1  UNL1        0.1233
@<TRIPOS>BOND
     1    28    27    1
     2    28    29    1
     3    29    30    1
     4    30    26    1
     5    26    20    1
     6    20    21   ar
     7    21    22   ar
     8    22    23   ar
     9    23    19    1
    10    19     1    1
    11     1     2    2
    12     1     3   am
    13     3     4    1
    14     4     5    1
    15     5     6    1
    16     6     9    1
    17     9    11    1
    18    11    12   ar
    19    12    13   ar
    20    13    14   ar
    21    14    15   ar
    22    15    17    1
    23    17    18    3
    24    15    16   ar
    25     6     7    1
    26     7     8    1
    27    23    24   ar
    28    24    25   ar
    29    30    31    1
    30    31    32    1
    31    32    33    1
    32    33    28    1
    33    25    20   ar
    34     8     3    1
    35    16    11   ar
    36     9    10    1
    37    33    34    1
@<TRIPOS>MOLECULE
*****
 34 37 0 0 0
SMALL
GASTEIGER

@<TRIPOS>ATOM
      1 C          60.0258   88.0372    8.2784 C.2     1  UNL1        0.2301
      2 O          58.6539   88.4298    7.8163 O.2     1  UNL1       -0.2745
      3 N          60.7214   88.8447    9.3339 N.am    1  UNL1       -0.2792
      4 C          60.0451   90.0449    9.9272 C.3     1  UNL1        0.0951
      5 C          60.7407   90.8525   10.9826 C.3     1  UNL1        0.0410
      6 C          62.1126   90.4599   11.4447 C.3     1  UNL1        0.0724
      7 C          62.7890   89.2597   10.8514 C.3     1  UNL1        0.0410
      8 C          62.0934   88.4521    9.7960 C.3     1  UNL1        0.0951
      9 N          62.8082   91.2675   12.5002 N.pl3   1  UNL1       -0.3339
     10 H          62.3295   91.5189   13.3229 H       1  UNL1        0.1468
     11 C          64.2331   91.6921   12.3021 C.ar    1  UNL1        0.0453
     12 C          64.7090   92.1101   10.9425 C.ar    1  UNL1        0.0143
     13 C          66.1340   92.5347   10.7443 C.ar    1  UNL1        0.0020
     14 C          67.0830   92.5413   11.9059 C.ar    1  UNL1        0.0104
     15 C          66.6070   92.1233   13.2657 C.ar    1  UNL1        0.0697
     16 C          65.1821   91.6987   13.4637 C.ar    1  UNL1        0.0246
     17 C          67.5560   92.1298   14.4273 C.1     1  UNL1        0.1005
     18 N          68.5051   92.1364   15.5889 N.1     1  UNL1       -0.1908
     19 C          60.7023   86.8369    7.6851 C.3     1  UNL1        0.1116
     20 C          63.2435   84.1763   10.2762 C.ar    1  UNL1       -0.0062
     21 C          63.5611   84.3281    8.8180 C.ar    1  UNL1       -0.0032
     22 C          62.7140   85.2150    7.9543 C.ar    1  UNL1       -0.0041
     23 C          61.5493   85.9500    8.5488 C.ar    1  UNL1       -0.0131
     24 C          61.2318   85.7982   10.0069 C.ar    1  UNL1       -0.0041
     25 C          62.0788   84.9114   10.8706 C.ar    1  UNL1       -0.0032
     26 C          64.0905   83.2895   11.1398 C.3     1  UNL1        0.0992
     27 C          60.8320   80.6497   14.2080 C.3     1  UNL1        0.0186
     28 C          61.9909   81.5883   14.0463 C.3     1  UNL1        0.0703
     29 C          62.4613   81.9696   12.6740 C.3     1  UNL1        0.0882
     30 N          63.6201   82.9082   12.5122 N.3     1  UNL1       -0.2666
     31 C          64.3085   83.4655   13.7228 C.3     1  UNL1        0.0897
     32 C          63.8381   83.0842   15.0951 C.3     1  UNL1        0.0861
     33 N          62.6792   82.1455   15.2568 N.3     1  UNL1       -0.2963
     34 H          61.9704   82.6430   15.7958 H       1  UNL1        0.1233
@<TRIPOS>BOND
     1    28    27    1
     2    28    29    1
     3    29    30    1
     4    30    26    1
     5    26    20    1
     6    20    21   ar
     7    21    22   ar
     8    22    23   ar
     9    23    19    1
    10    19     1    1
    11     1     2    2
    12     1     3   am
    13     3     4    1
    14     4     5    1
    15     5     6    1
    16     6     9    1
    17     9    11    1
    18    11    12   ar
    19    12    13   ar
    20    13    14   ar
    21    14    15   ar
    22    15    17    1
    23    17    18    3
    24    15    16   ar
    25     6     7    1
    26     7     8    1
    27    23    24   ar
    28    24    25   ar
    29    30    31    1
    30    31    32    1
    31    32    33    1
    32    33    28    1
    33    25    20   ar
    34     8     3    1
    35    16    11   ar
    36     9    10    1
    37    33    34    1
@<TRIPOS>MOLECULE
*****
 34 37 0 0 0
SMALL
GASTEIGER

@<TRIPOS>ATOM
      1 C          60.2076   88.1993    8.3591 C.2     1  UNL1        0.2301
      2 O          58.9046   88.7106    7.8199 O.2     1  UNL1       -0.2745
      3 N          60.8625   88.8902    9.5182 N.am    1  UNL1       -0.2792
      4 C          60.2145   90.0925   10.1382 C.3     1  UNL1        0.0951
      5 C          60.8694   90.7835   11.2974 C.3     1  UNL1        0.0410
      6 C          62.1723   90.2721   11.8366 C.3     1  UNL1        0.0724
      7 C          62.8205   89.0698   11.2166 C.3     1  UNL1        0.0410
      8 C          62.1656   88.3788   10.0574 C.3     1  UNL1        0.0951
      9 N          62.8273   90.9631   12.9958 N.pl3   1  UNL1       -0.3339
     10 H          62.3195   91.1239   13.8237 H       1  UNL1        0.1468
     11 C          64.2558   91.4090   12.8934 C.ar    1  UNL1        0.0453
     12 C          65.2083   91.1388   14.0202 C.ar    1  UNL1        0.0143
     13 C          66.6369   91.5847   13.9178 C.ar    1  UNL1        0.0020
     14 C          67.1128   92.3008   12.6887 C.ar    1  UNL1        0.0104
     15 C          66.1602   92.5710   11.5619 C.ar    1  UNL1        0.0697
     16 C          64.7317   92.1251   11.6643 C.ar    1  UNL1        0.0246
     17 C          66.6362   93.2870   10.3328 C.1     1  UNL1        0.1005
     18 N          67.1121   94.0031    9.1037 N.1     1  UNL1       -0.1908
     19 C          60.8557   86.9969    7.7391 C.3     1  UNL1        0.1116
     20 C          63.2448   84.1624   10.2900 C.ar    1  UNL1       -0.0062
     21 C          62.0607   84.8773   10.8704 C.ar    1  UNL1       -0.0032
     22 C          61.2644   85.8222   10.0201 C.ar    1  UNL1       -0.0041
     23 C          61.6521   86.0521    8.5894 C.ar    1  UNL1       -0.0131
     24 C          62.8361   85.3371    8.0090 C.ar    1  UNL1       -0.0041
     25 C          63.6325   84.3923    8.8594 C.ar    1  UNL1       -0.0032
     26 C          64.0412   83.2175   11.1403 C.3     1  UNL1        0.0992
     27 C          60.7602   80.6303   14.2292 C.3     1  UNL1        0.0186
     28 C          61.9203   81.5659   14.0600 C.3     1  UNL1        0.0703
     29 C          62.4007   81.9239   12.6848 C.3     1  UNL1        0.0882
     30 N          63.5608   82.8596   12.5156 N.3     1  UNL1       -0.2666
     31 C          64.2405   83.4373   13.7214 C.3     1  UNL1        0.0897
     32 C          63.7601   83.0794   15.0966 C.3     1  UNL1        0.0861
     33 N          62.6000   82.1437   15.2658 N.3     1  UNL1       -0.2963
     34 H          61.8873   82.6503   15.7911 H       1  UNL1        0.1233
@<TRIPOS>BOND
     1    28    27    1
     2    28    29    1
     3    29    30    1
     4    30    26    1
     5    26    20    1
     6    20    21   ar
     7    21    22   ar
     8    22    23   ar
     9    23    19    1
    10    19     1    1
    11     1     2    2
    12     1     3   am
    13     3     4    1
    14     4     5    1
    15     5     6    1
    16     6     9    1
    17     9    11    1
    18    11    12   ar
    19    12    13   ar
    20    13    14   ar
    21    14    15   ar
    22    15    17    1
    23    17    18    3
    24    15    16   ar
    25     6     7    1
    26     7     8    1
    27    23    24   ar
    28    24    25   ar
    29    30    31    1
    30    31    32    1
    31    32    33    1
    32    33    28    1
    33    25    20   ar
    34     8     3    1
    35    16    11   ar
    36     9    10    1
    37    33    34    1
@<TRIPOS>MOLECULE
*****
 34 37 0 0 0
SMALL
GASTEIGER

@<TRIPOS>ATOM
      1 C          63.6163   90.1568   15.5299 C.2     1  UNL1        0.2301
      2 O          63.1328   90.9749   16.6905 O.2     1  UNL1       -0.2745
      3 N          63.6933   88.6632   15.6455 N.am    1  UNL1       -0.2792
      4 C          63.2869   87.9878   16.9216 C.3     1  UNL1        0.0951
      5 C          63.3640   86.4942   17.0372 C.3     1  UNL1        0.0410
      6 C          63.8475   85.6761   15.8766 C.3     1  UNL1        0.0724
      7 C          64.2539   86.3516   14.6004 C.3     1  UNL1        0.0410
      8 C          64.1769   87.8451   14.4848 C.3     1  UNL1        0.0951
      9 N          63.9245   84.1826   15.9922 N.pl3   1  UNL1       -0.3339
     10 H          64.3296   83.7708   16.7895 H       1  UNL1        0.1468
     11 C          63.3845   83.3164   14.8931 C.ar    1  UNL1        0.0453
     12 C          62.1988   82.4337   15.1478 C.ar    1  UNL1        0.0143
     13 C          61.6587   81.5675   14.0487 C.ar    1  UNL1        0.0020
     14 C          62.3043   81.5841   12.6948 C.ar    1  UNL1        0.0104
     15 C          63.4901   82.4668   12.4401 C.ar    1  UNL1        0.0697
     16 C          64.0301   83.3330   13.5393 C.ar    1  UNL1        0.0246
     17 C          64.1357   82.4834   11.0863 C.1     1  UNL1        0.1005
     18 N          64.7814   82.4999    9.7325 N.1     1  UNL1       -0.1908
     19 C          64.0227   90.8323   14.2537 C.3     1  UNL1        0.1116
     20 C          61.6248   90.1827   10.5017 C.ar    1  UNL1       -0.0062
     21 C          61.0766   89.7444   11.8274 C.ar    1  UNL1       -0.0032
     22 C          61.8759   89.9609   13.0781 C.ar    1  UNL1       -0.0041
     23 C          63.2234   90.6157   13.0030 C.ar    1  UNL1       -0.0131
     24 C          63.7715   91.0540   11.6774 C.ar    1  UNL1       -0.0041
     25 C          62.9722   90.8375   10.4267 C.ar    1  UNL1       -0.0032
     26 C          60.8254   89.9662    9.2510 C.3     1  UNL1        0.0992
     27 C          62.4211   85.0578    8.6498 C.3     1  UNL1        0.0186
     28 C          61.3818   86.1200    8.4462 C.3     1  UNL1        0.0703
     29 C          61.6232   87.5120    8.9504 C.3     1  UNL1        0.0882
     30 N          60.5839   88.5742    8.7468 N.3     1  UNL1       -0.2666
     31 C          59.3031   88.2446    8.0391 C.3     1  UNL1        0.0897
     32 C          59.0617   86.8526    7.5350 C.3     1  UNL1        0.0861
     33 N          60.1010   85.7904    7.7385 N.3     1  UNL1       -0.2963
     34 H          60.3562   85.4468    6.8127 H       1  UNL1        0.1233
@<TRIPOS>BOND
     1    28    27    1
     2    28    29    1
     3    29    30    1
     4    30    26    1
     5    26    20    1
     6    20    21   ar
     7    21    22   ar
     8    22    23   ar
     9    23    19    1
    10    19     1    1
    11     1     2    2
    12     1     3   am
    13     3     4    1
    14     4     5    1
    15     5     6    1
    16     6     9    1
    17     9    11    1
    18    11    12   ar
    19    12    13   ar
    20    13    14   ar
    21    14    15   ar
    22    15    17    1
    23    17    18    3
    24    15    16   ar
    25     6     7    1
    26     7     8    1
    27    23    24   ar
    28    24    25   ar
    29    30    31    1
    30    31    32    1
    31    32    33    1
    32    33    28    1
    33    25    20   ar
    34     8     3    1
    35    16    11   ar
    36     9    10    1
    37    33    34    1
@<TRIPOS>MOLECULE
*****
 34 37 0 0 0
SMALL
GASTEIGER

@<TRIPOS>ATOM
      1 C          63.8899   84.0444   14.9298 C.2     1  UNL1        0.2301
      2 O          64.7429   82.8719   15.3141 O.2     1  UNL1       -0.2745
      3 N          63.5719   84.2994   13.4862 N.am    1  UNL1       -0.2792
      4 C          64.1069   83.3819   12.4270 C.3     1  UNL1        0.0951
      5 C          63.7889   83.6368   10.9835 C.3     1  UNL1        0.0410
      6 C          62.9359   84.8093   10.5991 C.3     1  UNL1        0.0724
      7 C          62.4009   85.7269   11.6583 C.3     1  UNL1        0.0410
      8 C          62.7189   85.4719   13.1019 C.3     1  UNL1        0.0951
      9 N          62.6179   85.0643    9.1555 N.pl3   1  UNL1       -0.3339
     10 H          63.1273   84.6032    8.4504 H       1  UNL1        0.1468
     11 C          61.5238   86.0216    8.7863 C.ar    1  UNL1        0.0453
     12 C          60.5753   85.6839    7.6745 C.ar    1  UNL1        0.0143
     13 C          59.4812   86.6413    7.3052 C.ar    1  UNL1        0.0020
     14 C          59.3356   87.9364    8.0478 C.ar    1  UNL1        0.0104
     15 C          60.2841   88.2741    9.1597 C.ar    1  UNL1        0.0697
     16 C          61.3782   87.3167    9.5290 C.ar    1  UNL1        0.0246
     17 C          60.1385   89.5692    9.9024 C.1     1  UNL1        0.1005
     18 N          59.9930   90.8643   10.6450 N.1     1  UNL1       -0.1908
     19 C          63.3549   84.9620   15.9890 C.3     1  UNL1        0.1116
     20 C          63.9117   89.4107   15.6028 C.ar    1  UNL1       -0.0062
     21 C          64.5428   88.4863   14.6040 C.ar    1  UNL1       -0.0032
     22 C          64.3572   87.0034   14.7328 C.ar    1  UNL1       -0.0041
     23 C          63.5405   86.4449   15.8603 C.ar    1  UNL1       -0.0131
     24 C          62.9096   87.3692   16.8590 C.ar    1  UNL1       -0.0041
     25 C          63.0952   88.8521   16.7303 C.ar    1  UNL1       -0.0032
     26 C          64.0973   90.8936   15.4741 C.3     1  UNL1        0.0992
     27 C          65.2870   92.7959   10.7873 C.3     1  UNL1        0.0186
     28 C          65.7055   92.3931   12.1703 C.3     1  UNL1        0.0703
     29 C          64.6922   91.8447   13.1307 C.3     1  UNL1        0.0882
     30 N          65.1107   91.4420   14.5136 N.3     1  UNL1       -0.2666
     31 C          66.5426   91.5876   14.9362 C.3     1  UNL1        0.0897
     32 C          67.5559   92.1360   13.9758 C.3     1  UNL1        0.0861
     33 N          67.1373   92.5388   12.5928 N.3     1  UNL1       -0.2963
     34 H          67.6940   91.9833   11.9432 H       1  UNL1        0.1233
@<TRIPOS>BOND
     1    28    27    1
     2    28    29    1
     3    29    30    1
     4    30    26    1
     5    26    20    1
     6    20    21   ar
     7    21    22   ar
     8    22    23   ar
     9    23    19    1
    10    19     1    1
    11     1     2    2
    12     1     3   am
    13     3     4    1
    14     4     5    1
    15     5     6    1
    16     6     9    1
    17     9    11    1
    18    11    12   ar
    19    12    13   ar
    20    13    14   ar
    21    14    15   ar
    22    15    17    1
    23    17    18    3
    24    15    16   ar
    25     6     7    1
    26     7     8    1
    27    23    24   ar
    28    24    25   ar
    29    30    31    1
    30    31    32    1
    31    32    33    1
    32    33    28    1
    33    25    20   ar
    34     8     3    1
    35    16    11   ar
    36     9    10    1
    37    33    34    1
@<TRIPOS>MOLECULE
*****
 34 37 0 0 0
SMALL
GASTEIGER

@<TRIPOS>ATOM
      1 C          63.6985   84.2526   15.3044 C.2     1  UNL1        0.2301
      2 O          63.0597   83.3639   16.3301 O.2     1  UNL1       -0.2745
      3 N          63.6871   85.7410   15.4901 N.am    1  UNL1       -0.2792
      4 C          63.0369   86.3408   16.7014 C.3     1  UNL1        0.0951
      5 C          63.0256   87.8292   16.8871 C.3     1  UNL1        0.0410
      6 C          63.6644   88.7178   15.8614 C.3     1  UNL1        0.0724
      7 C          64.3146   88.1181   14.6499 C.3     1  UNL1        0.0410
      8 C          64.3260   86.6297   14.4643 C.3     1  UNL1        0.0951
      9 N          63.6530   90.2063   16.0471 N.pl3   1  UNL1       -0.3339
     10 H          63.0929   90.6106   16.7486 H       1  UNL1        0.1468
     11 C          64.4949   91.0787   15.1639 C.ar    1  UNL1        0.0453
     12 C          64.2082   91.1564   13.6937 C.ar    1  UNL1        0.0143
     13 C          65.0502   92.0289   12.8104 C.ar    1  UNL1        0.0020
     14 C          66.1787   92.8236   13.3975 C.ar    1  UNL1        0.0104
     15 C          66.4654   92.7459   14.8679 C.ar    1  UNL1        0.0697
     16 C          65.6235   91.8734   15.7510 C.ar    1  UNL1        0.0246
     17 C          67.5940   93.5406   15.4550 C.1     1  UNL1        0.1005
     18 N          68.7225   94.3353   16.0422 N.1     1  UNL1       -0.1908
     19 C          64.3488   83.6528   14.0929 C.3     1  UNL1        0.1116
     20 C          62.8959   84.7584    9.9799 C.ar    1  UNL1       -0.0062
     21 C          64.0665   83.8339   10.1385 C.ar    1  UNL1       -0.0032
     22 C          64.5508   83.4654   11.5095 C.ar    1  UNL1       -0.0041
     23 C          63.8645   84.0214   12.7219 C.ar    1  UNL1       -0.0131
     24 C          62.6939   84.9458   12.5633 C.ar    1  UNL1       -0.0041
     25 C          62.2097   85.3143   11.1923 C.ar    1  UNL1       -0.0032
     26 C          62.4116   85.1269    8.6089 C.3     1  UNL1        0.0992
     27 C          60.4827   89.8300    9.6863 C.3     1  UNL1        0.0186
     28 C          60.3694   88.5090    8.9848 C.3     1  UNL1        0.0703
     29 C          61.4471   87.4785    9.1476 C.3     1  UNL1        0.0882
     30 N          61.3338   86.1575    8.4461 N.3     1  UNL1       -0.2666
     31 C          60.1428   85.8670    7.5817 C.3     1  UNL1        0.0897
     32 C          59.0651   86.8975    7.4189 C.3     1  UNL1        0.0861
     33 N          59.1784   88.2185    8.1204 N.3     1  UNL1       -0.2963
     34 H          58.3544   88.3078    8.7149 H       1  UNL1        0.1233
@<TRIPOS>BOND
     1    28    27    1
     2    28    29    1
     3    29    30    1
     4    30    26    1
     5    26    20    1
     6    20    21   ar
     7    21    22   ar
     8    22    23   ar
     9    23    19    1
    10    19     1    1
    11     1     2    2
    12     1     3   am
    13     3     4    1
    14     4     5    1
    15     5     6    1
    16     6     9    1
    17     9    11    1
    18    11    12   ar
    19    12    13   ar
    20    13    14   ar
    21    14    15   ar
    22    15    17    1
    23    17    18    3
    24    15    16   ar
    25     6     7    1
    26     7     8    1
    27    23    24   ar
    28    24    25   ar
    29    30    31    1
    30    31    32    1
    31    32    33    1
    32    33    28    1
    33    25    20   ar
    34     8     3    1
    35    16    11   ar
    36     9    10    1
    37    33    34    1
@<TRIPOS>MOLECULE
*****
 34 37 0 0 0
SMALL
GASTEIGER

@<TRIPOS>ATOM
      1 C          63.5790   83.9224   15.2098 C.2     1  UNL1        0.2301
      2 O          62.8994   83.0353   16.2103 O.2     1  UNL1       -0.2745
      3 N          63.6335   85.4042   15.4362 N.am    1  UNL1       -0.2792
      4 C          63.0084   85.9989   16.6632 C.3     1  UNL1        0.0951
      5 C          63.0629   87.4807   16.8897 C.3     1  UNL1        0.0410
      6 C          63.7425   88.3678   15.8891 C.3     1  UNL1        0.0724
      7 C          64.3677   87.7731   14.6620 C.3     1  UNL1        0.0410
      8 C          64.3132   86.2913   14.4356 C.3     1  UNL1        0.0951
      9 N          63.7970   89.8496   16.1155 N.pl3   1  UNL1       -0.3339
     10 H          63.4503   90.2326   16.9536 H       1  UNL1        0.1468
     11 C          64.3798   90.7479   15.0652 C.ar    1  UNL1        0.0453
     12 C          65.5043   91.6776   15.4132 C.ar    1  UNL1        0.0143
     13 C          66.0872   92.5760   14.3628 C.ar    1  UNL1        0.0020
     14 C          65.5455   92.5446   12.9643 C.ar    1  UNL1        0.0104
     15 C          64.4210   91.6147   12.6163 C.ar    1  UNL1        0.0697
     16 C          63.8382   90.7165   13.6667 C.ar    1  UNL1        0.0246
     17 C          63.8794   91.5833   11.2179 C.1     1  UNL1        0.1005
     18 N          63.3378   91.5518    9.8194 N.1     1  UNL1       -0.1908
     19 C          64.2042   83.3277   13.9827 C.3     1  UNL1        0.1116
     20 C          62.9259   84.7289    9.9020 C.ar    1  UNL1       -0.0062
     21 C          62.1965   85.2081   11.1220 C.ar    1  UNL1       -0.0032
     22 C          62.6226   84.7410   12.4823 C.ar    1  UNL1       -0.0041
     23 C          63.7781   83.7948   12.6225 C.ar    1  UNL1       -0.0131
     24 C          64.5074   83.3157   11.4024 C.ar    1  UNL1       -0.0041
     25 C          64.0813   83.7827   10.0422 C.ar    1  UNL1       -0.0032
     26 C          62.4998   85.1960    8.5417 C.3     1  UNL1        0.0992
     27 C          60.3156   89.7623    9.7157 C.3     1  UNL1        0.0186
     28 C          60.2725   88.4499    8.9906 C.3     1  UNL1        0.0703
     29 C          61.4076   87.4792    9.1287 C.3     1  UNL1        0.0882
     30 N          61.3646   86.1668    8.4036 N.3     1  UNL1       -0.2666
     31 C          60.1864   85.8251    7.5404 C.3     1  UNL1        0.0897
     32 C          59.0513   86.7959    7.4023 C.3     1  UNL1        0.0861
     33 N          59.0943   88.1083    8.1274 N.3     1  UNL1       -0.2963
     34 H          58.2704   88.1401    8.7278 H       1  UNL1        0.1233
@<TRIPOS>BOND
     1    28    27    1
     2    28    29    1
     3    29    30    1
     4    30    26    1
     5    26    20    1
     6    20    21   ar
     7    21    22   ar
     8    22    23   ar
     9    23    19    1
    10    19     1    1
    11     1     2    2
    12     1     3   am
    13     3     4    1
    14     4     5    1
    15     5     6    1
    16     6     9    1
    17     9    11    1
    18    11    12   ar
    19    12    13   ar
    20    13    14   ar
    21    14    15   ar
    22    15    17    1
    23    17    18    3
    24    15    16   ar
    25     6     7    1
    26     7     8    1
    27    23    24   ar
    28    24    25   ar
    29    30    31    1
    30    31    32    1
    31    32    33    1
    32    33    28    1
    33    25    20   ar
    34     8     3    1
    35    16    11   ar
    36     9    10    1
    37    33    34    1
@<TRIPOS>MOLECULE
*****
 34 37 0 0 0
SMALL
GASTEIGER

@<TRIPOS>ATOM
      1 C          59.9142   88.9903    8.4110 C.2     1  UNL1        0.2301
      2 O          59.7469   90.2299    9.2389 O.2     1  UNL1       -0.2745
      3 N          60.7493   87.8540    8.9223 N.am    1  UNL1       -0.2792
      4 C          61.4170   87.9572   10.2614 C.3     1  UNL1        0.0951
      5 C          62.2521   86.8209   10.7727 C.3     1  UNL1        0.0410
      6 C          62.4194   85.5813    9.9448 C.3     1  UNL1        0.0724
      7 C          61.7516   85.4780    8.6056 C.3     1  UNL1        0.0410
      8 C          60.9165   86.6144    8.0943 C.3     1  UNL1        0.0951
      9 N          63.2545   84.4450   10.4561 N.pl3   1  UNL1       -0.3339
     10 H          64.0448   84.1481    9.9496 H       1  UNL1        0.1468
     11 C          62.8854   83.7609   11.7390 C.ar    1  UNL1        0.0453
     12 C          62.6325   82.2825   11.7548 C.ar    1  UNL1        0.0143
     13 C          62.2635   81.5984   13.0377 C.ar    1  UNL1        0.0020
     14 C          62.1473   82.3928   14.3048 C.ar    1  UNL1        0.0104
     15 C          62.4002   83.8713   14.2889 C.ar    1  UNL1        0.0697
     16 C          62.7692   84.5553   13.0060 C.ar    1  UNL1        0.0246
     17 C          62.2840   84.6657   15.5560 C.1     1  UNL1        0.1005
     18 N          62.1679   85.4601   16.8231 N.1     1  UNL1       -0.1908
     19 C          59.2464   88.8870    7.0718 C.3     1  UNL1        0.1116
     20 C          59.5742   92.2739    4.1270 C.ar    1  UNL1       -0.0062
     21 C          58.2317   91.8737    4.6634 C.ar    1  UNL1       -0.0032
     22 C          58.1224   90.7447    5.6450 C.ar    1  UNL1       -0.0041
     23 C          59.3557   90.0160    6.0902 C.ar    1  UNL1       -0.0131
     24 C          60.6981   90.4163    5.5538 C.ar    1  UNL1       -0.0041
     25 C          60.8073   91.5452    4.5723 C.ar    1  UNL1       -0.0032
     26 C          59.6834   93.4029    3.1455 C.3     1  UNL1        0.0992
     27 C          64.0733   93.6959    0.3808 C.3     1  UNL1        0.0186
     28 C          62.6161   93.3520    0.4721 C.3     1  UNL1        0.0703
     29 C          61.8784   93.5494    1.7631 C.3     1  UNL1        0.0882
     30 N          60.4212   93.2055    1.8544 N.3     1  UNL1       -0.2666
     31 C          59.7017   92.6641    0.6547 C.3     1  UNL1        0.0897
     32 C          60.4395   92.4667   -0.6363 C.3     1  UNL1        0.0861
     33 N          61.8967   92.8106   -0.7276 N.3     1  UNL1       -0.2963
     34 H          61.9888   93.5084   -1.4659 H       1  UNL1        0.1233
@<TRIPOS>BOND
     1    28    27    1
     2    28    29    1
     3    29    30    1
     4    30    26    1
     5    26    20    1
     6    20    21   ar
     7    21    22   ar
     8    22    23   ar
     9    23    19    1
    10    19     1    1
    11     1     2    2
    12     1     3   am
    13     3     4    1
    14     4     5    1
    15     5     6    1
    16     6     9    1
    17     9    11    1
    18    11    12   ar
    19    12    13   ar
    20    13    14   ar
    21    14    15   ar
    22    15    17    1
    23    17    18    3
    24    15    16   ar
    25     6     7    1
    26     7     8    1
    27    23    24   ar
    28    24    25   ar
    29    30    31    1
    30    31    32    1
    31    32    33    1
    32    33    28    1
    33    25    20   ar
    34     8     3    1
    35    16    11   ar
    36     9    10    1
    37    33    34    1
