@<TRIPOS>MOLECULE
*****
 34 37 0 0 0
SMALL
GASTEIGER

@<TRIPOS>ATOM
      1 C          60.7045   87.2427    9.8696 C.ar    1  UNL1       -0.0023
      2 C          59.7158   86.3696    9.1555 C.ar    1  UNL1       -0.0026
      3 C          58.9523   86.9062    7.9812 C.ar    1  UNL1       -0.0003
      4 C          59.1776   88.3160    7.5210 C.ar    1  UNL1       -0.0000
      5 C          60.1663   89.1891    8.2351 C.ar    1  UNL1       -0.0003
      6 C          60.9298   88.6525    9.4094 C.ar    1  UNL1       -0.0024
      7 C          61.9186   89.5256   10.1236 C.ar    1  UNL1       -0.0003
      8 C          62.4522   90.7573    9.4542 C.ar    1  UNL1       -0.0003
      9 C          63.4409   91.6305   10.1684 C.ar    1  UNL1       -0.0029
     10 C          63.8961   91.2719   11.5520 C.ar    1  UNL1       -0.0061
     11 C          63.3625   90.0401   12.2214 C.ar    1  UNL1       -0.0029
     12 C          62.3737   89.1670   11.5072 C.ar    1  UNL1       -0.0003
     13 C          64.8848   92.1450   12.2661 C.3     1  UNL1        0.0992
     14 N          65.8515   92.9810   11.4809 N.3     1  UNL1       -0.2666
     15 C          66.9084   92.3207   10.6461 C.3     1  UNL1        0.0882
     16 C          67.8750   93.1567    9.8609 C.3     1  UNL1        0.0702
     17 C          68.9319   92.4963    9.0261 C.3     1  UNL1        0.0186
     18 N          67.7848   94.6532    9.9104 N.3     1  UNL1       -0.2974
     19 C          66.7279   95.3135   10.7452 C.3     1  UNL1        0.0702
     20 C          66.6376   96.8100   10.7948 C.3     1  UNL1        0.0186
     21 C          65.7613   94.4775   11.5304 C.3     1  UNL1        0.0882
     22 H          67.6444   94.9716    8.9516 H       1  UNL1        0.1232
     23 C          61.4681   86.7060   11.0440 C.3     1  UNL1        0.1202
     24 C          63.0063   84.8623   12.0362 C.2     1  UNL1        0.2337
     25 O          62.5483   85.2238   13.4180 O.2     1  UNL1       -0.2744
     26 N          62.4662   85.6034   10.8491 N.am    1  UNL1       -0.2733
     27 C          62.9243   85.2420    9.4673 C.3     1  UNL1        0.1152
     28 C          64.0045   83.7597   11.8414 C.3     1  UNL1        0.1523
     29 C          62.7362   79.1192    9.6649 C.3     1  UNL1        0.0557
     30 C          62.9526   80.2123   10.6690 C.ar    1  UNL1        0.1007
     31 C          63.4842   81.5844   10.3778 C.ar    1  UNL1        0.0541
     32 C          63.5356   82.3453   11.6694 C.ar    1  UNL1        0.1632
     33 O          63.0359   81.4435   12.7589 O.2     1  UNL1       -0.3576
     34 N          62.6756   80.1252   12.1407 N.ar    1  UNL1       -0.0817
@<TRIPOS>BOND
     1    29    30    1
     2    30    31   ar
     3    31    32   ar
     4    32    28    1
     5    28    24    1
     6    24    25    2
     7    24    26   am
     8    26    27    1
     9    26    23    1
    10    23     1    1
    11     1     2   ar
    12     2     3   ar
    13     3     4   ar
    14     4     5   ar
    15     5     6   ar
    16     6     7    1
    17     7     8   ar
    18     8     9   ar
    19     9    10   ar
    20    10    13    1
    21    13    14    1
    22    14    15    1
    23    15    16    1
    24    16    17    1
    25    16    18    1
    26    18    19    1
    27    19    20    1
    28    19    21    1
    29    10    11   ar
    30    11    12   ar
    31    32    33   ar
    32    33    34   ar
    33    34    30   ar
    34     6     1   ar
    35    12     7   ar
    36    21    14    1
    37    18    22    1
@<TRIPOS>MOLECULE
*****
 34 37 0 0 0
SMALL
GASTEIGER

@<TRIPOS>ATOM
      1 C          61.1693   87.2359   10.2327 C.ar    1  UNL1       -0.0023
      2 C          60.1876   86.2754    9.6298 C.ar    1  UNL1       -0.0026
      3 C          59.2962   86.7194    8.5081 C.ar    1  UNL1       -0.0003
      4 C          59.3866   88.1239    7.9894 C.ar    1  UNL1       -0.0000
      5 C          60.3683   89.0844    8.5923 C.ar    1  UNL1       -0.0003
      6 C          61.2597   88.6404    9.7140 C.ar    1  UNL1       -0.0024
      7 C          62.2415   89.6010   10.3170 C.ar    1  UNL1       -0.0003
      8 C          62.6920   90.8008    9.5377 C.ar    1  UNL1       -0.0003
      9 C          63.6738   91.7613   10.1406 C.ar    1  UNL1       -0.0029
     10 C          64.2050   91.5220   11.5229 C.ar    1  UNL1       -0.0061
     11 C          63.7544   90.3221   12.3022 C.ar    1  UNL1       -0.0029
     12 C          62.7726   89.3616   11.6992 C.ar    1  UNL1       -0.0003
     13 C          65.1867   92.4825   12.1259 C.3     1  UNL1        0.0992
     14 N          66.1898   93.1765   11.2528 N.3     1  UNL1       -0.2666
     15 C          66.1535   94.6692   11.1091 C.3     1  UNL1        0.0882
     16 C          67.1566   95.3632   10.2361 C.3     1  UNL1        0.0702
     17 C          67.1203   96.8559   10.0924 C.3     1  UNL1        0.0186
     18 N          68.1960   94.5646    9.5068 N.3     1  UNL1       -0.2974
     19 C          68.2322   93.0719    9.6505 C.3     1  UNL1        0.0702
     20 C          69.2716   92.2733    8.9212 C.3     1  UNL1        0.0186
     21 C          67.2291   92.3779   10.5235 C.3     1  UNL1        0.0882
     22 H          69.1041   94.9122    9.8147 H       1  UNL1        0.1232
     23 C          62.0608   86.7919   11.3545 C.3     1  UNL1        0.1202
     24 C          63.2862   84.8304   12.5381 C.2     1  UNL1        0.2337
     25 O          63.1537   85.5408   13.8526 O.2     1  UNL1       -0.2744
     26 N          62.7397   85.4559   11.2891 N.am    1  UNL1       -0.2733
     27 C          62.8721   84.7455    9.9747 C.3     1  UNL1        0.1152
     28 C          63.9651   83.4944   12.4727 C.3     1  UNL1        0.1523
     29 C          60.3293   80.1321   14.3047 C.3     1  UNL1        0.0557
     30 C          61.5102   80.6960   13.5715 C.ar    1  UNL1        0.1007
     31 C          61.9681   82.1240   13.6036 C.ar    1  UNL1        0.0541
     32 C          63.1814   82.2415   12.7295 C.ar    1  UNL1        0.1632
     33 O          63.4734   80.8860   12.1572 O.2     1  UNL1       -0.3576
     34 N          62.4406   79.9308   12.6776 N.ar    1  UNL1       -0.0817
@<TRIPOS>BOND
     1    29    30    1
     2    30    31   ar
     3    31    32   ar
     4    32    28    1
     5    28    24    1
     6    24    25    2
     7    24    26   am
     8    26    27    1
     9    26    23    1
    10    23     1    1
    11     1     2   ar
    12     2     3   ar
    13     3     4   ar
    14     4     5   ar
    15     5     6   ar
    16     6     7    1
    17     7     8   ar
    18     8     9   ar
    19     9    10   ar
    20    10    13    1
    21    13    14    1
    22    14    15    1
    23    15    16    1
    24    16    17    1
    25    16    18    1
    26    18    19    1
    27    19    20    1
    28    19    21    1
    29    10    11   ar
    30    11    12   ar
    31    32    33   ar
    32    33    34   ar
    33    34    30   ar
    34     6     1   ar
    35    12     7   ar
    36    21    14    1
    37    18    22    1
@<TRIPOS>MOLECULE
*****
 34 37 0 0 0
SMALL
GASTEIGER

@<TRIPOS>ATOM
      1 C          61.3228   86.9896    9.0278 C.ar    1  UNL1       -0.0023
      2 C          60.3839   86.1059    8.2613 C.ar    1  UNL1       -0.0026
      3 C          59.1460   86.6847    7.6428 C.ar    1  UNL1       -0.0003
      4 C          58.8470   88.1471    7.7908 C.ar    1  UNL1       -0.0000
      5 C          59.7859   89.0308    8.5573 C.ar    1  UNL1       -0.0003
      6 C          61.0238   88.4520    9.1758 C.ar    1  UNL1       -0.0024
      7 C          61.9628   89.3357    9.9423 C.ar    1  UNL1       -0.0003
      8 C          62.4667   90.6074    9.3267 C.ar    1  UNL1       -0.0003
      9 C          63.4056   91.4910   10.0932 C.ar    1  UNL1       -0.0029
     10 C          63.8406   91.1031   11.4754 C.ar    1  UNL1       -0.0061
     11 C          63.3367   89.8314   12.0910 C.ar    1  UNL1       -0.0029
     12 C          62.3977   88.9478   11.3244 C.ar    1  UNL1       -0.0003
     13 C          64.7795   91.9867   12.2418 C.3     1  UNL1        0.0992
     14 N          65.7574   92.8565   11.5089 N.3     1  UNL1       -0.2666
     15 C          65.6559   94.3496   11.6104 C.3     1  UNL1        0.0882
     16 C          66.6338   95.2194   10.8775 C.3     1  UNL1        0.0702
     17 C          66.5322   96.7126   10.9790 C.3     1  UNL1        0.0186
     18 N          67.7133   94.5961   10.0431 N.3     1  UNL1       -0.2974
     19 C          67.8148   93.1030    9.9416 C.3     1  UNL1        0.0702
     20 C          68.8943   92.4796    9.1072 C.3     1  UNL1        0.0186
     21 C          66.8369   92.2332   10.6745 C.3     1  UNL1        0.0882
     22 H          68.6026   94.9270   10.4172 H       1  UNL1        0.1232
     23 C          62.5608   86.4109    9.6463 C.3     1  UNL1        0.1202
     24 C          63.2032   84.0963   10.6365 C.2     1  UNL1        0.2337
     25 O          64.0747   83.8287    9.4454 O.2     1  UNL1       -0.2744
     26 N          62.4462   85.3875   10.7370 N.am    1  UNL1       -0.2733
     27 C          61.5746   85.6551   11.9280 C.3     1  UNL1        0.1152
     28 C          63.0885   83.0729   11.7271 C.3     1  UNL1        0.1523
     29 C          64.1657   85.6832   16.1888 C.3     1  UNL1        0.0557
     30 C          63.5800   84.7047   15.2144 C.ar    1  UNL1        0.1007
     31 C          63.8928   84.6246   13.7495 C.ar    1  UNL1        0.0541
     32 C          63.0849   83.5048   13.1636 C.ar    1  UNL1        0.1632
     33 O          62.2728   82.8928   14.2663 O.2     1  UNL1       -0.3576
     34 N          62.5788   83.6343   15.5337 N.ar    1  UNL1       -0.0817
@<TRIPOS>BOND
     1    29    30    1
     2    30    31   ar
     3    31    32   ar
     4    32    28    1
     5    28    24    1
     6    24    25    2
     7    24    26   am
     8    26    27    1
     9    26    23    1
    10    23     1    1
    11     1     2   ar
    12     2     3   ar
    13     3     4   ar
    14     4     5   ar
    15     5     6   ar
    16     6     7    1
    17     7     8   ar
    18     8     9   ar
    19     9    10   ar
    20    10    13    1
    21    13    14    1
    22    14    15    1
    23    15    16    1
    24    16    17    1
    25    16    18    1
    26    18    19    1
    27    19    20    1
    28    19    21    1
    29    10    11   ar
    30    11    12   ar
    31    32    33   ar
    32    33    34   ar
    33    34    30   ar
    34     6     1   ar
    35    12     7   ar
    36    21    14    1
    37    18    22    1
@<TRIPOS>MOLECULE
*****
 34 37 0 0 0
SMALL
GASTEIGER

@<TRIPOS>ATOM
      1 C          63.7621   82.3533   13.4770 C.ar    1  UNL1       -0.0023
      2 C          63.9724   81.0909   14.2593 C.ar    1  UNL1       -0.0026
      3 C          63.3627   79.8048   13.7858 C.ar    1  UNL1       -0.0003
      4 C          62.5427   79.7812   12.5300 C.ar    1  UNL1       -0.0000
      5 C          62.3323   81.0436   11.7477 C.ar    1  UNL1       -0.0003
      6 C          62.9420   82.3296   12.2212 C.ar    1  UNL1       -0.0024
      7 C          62.7317   83.5921   11.4389 C.ar    1  UNL1       -0.0003
      8 C          63.3067   83.7245   10.0598 C.ar    1  UNL1       -0.0003
      9 C          63.0964   84.9869    9.2775 C.ar    1  UNL1       -0.0029
     10 C          62.3110   86.1171    9.8743 C.ar    1  UNL1       -0.0061
     11 C          61.7360   85.9847   11.2534 C.ar    1  UNL1       -0.0029
     12 C          61.9464   84.7222   12.0357 C.ar    1  UNL1       -0.0003
     13 C          62.1007   87.3795    9.0920 C.3     1  UNL1        0.0992
     14 N          61.9030   88.6821    9.8091 N.3     1  UNL1       -0.2666
     15 C          63.0506   89.6358    9.9618 C.3     1  UNL1        0.0882
     16 C          62.8529   90.9384   10.6789 C.3     1  UNL1        0.0702
     17 C          64.0005   91.8922   10.8317 C.3     1  UNL1        0.0186
     18 N          61.5076   91.2872   11.2432 N.3     1  UNL1       -0.2974
     19 C          60.3600   90.3334   11.0904 C.3     1  UNL1        0.0702
     20 C          59.0146   90.6822   11.6548 C.3     1  UNL1        0.0186
     21 C          60.5577   89.0309   10.3734 C.3     1  UNL1        0.0882
     22 H          61.2227   92.1632   10.8052 H       1  UNL1        0.1232
     23 C          64.3718   83.6395   13.9504 C.3     1  UNL1        0.1202
     24 C          64.2479   85.7838   15.4122 C.2     1  UNL1        0.2337
     25 O          65.6218   86.1750   14.9548 O.2     1  UNL1       -0.2744
     26 N          63.6229   84.5160   14.9100 N.am    1  UNL1       -0.2733
     27 C          62.2490   84.1247   15.3674 C.3     1  UNL1        0.1152
     28 C          63.4989   86.6603   16.3718 C.3     1  UNL1        0.1523
     29 C          64.2849   91.4776   14.3580 C.3     1  UNL1        0.0557
     30 C          63.9020   90.3657   15.2891 C.ar    1  UNL1        0.1007
     31 C          64.0457   88.8979   15.0157 C.ar    1  UNL1        0.0541
     32 C          63.5408   88.1514   16.2148 C.ar    1  UNL1        0.1632
     33 O          63.0849   89.1579   17.2293 O.2     1  UNL1       -0.3576
     34 N          63.3082   90.5265   16.6572 N.ar    1  UNL1       -0.0817
@<TRIPOS>BOND
     1    29    30    1
     2    30    31   ar
     3    31    32   ar
     4    32    28    1
     5    28    24    1
     6    24    25    2
     7    24    26   am
     8    26    27    1
     9    26    23    1
    10    23     1    1
    11     1     2   ar
    12     2     3   ar
    13     3     4   ar
    14     4     5   ar
    15     5     6   ar
    16     6     7    1
    17     7     8   ar
    18     8     9   ar
    19     9    10   ar
    20    10    13    1
    21    13    14    1
    22    14    15    1
    23    15    16    1
    24    16    17    1
    25    16    18    1
    26    18    19    1
    27    19    20    1
    28    19    21    1
    29    10    11   ar
    30    11    12   ar
    31    32    33   ar
    32    33    34   ar
    33    34    30   ar
    34     6     1   ar
    35    12     7   ar
    36    21    14    1
    37    18    22    1
@<TRIPOS>MOLECULE
*****
 34 37 0 0 0
SMALL
GASTEIGER

@<TRIPOS>ATOM
      1 C          63.7628   82.3540   13.4745 C.ar    1  UNL1       -0.0023
      2 C          63.9740   81.0924   14.2578 C.ar    1  UNL1       -0.0026
      3 C          63.3642   79.8057   13.7859 C.ar    1  UNL1       -0.0003
      4 C          62.5432   79.7808   12.5307 C.ar    1  UNL1       -0.0000
      5 C          62.3320   81.0425   11.7475 C.ar    1  UNL1       -0.0003
      6 C          62.9418   82.3291   12.2194 C.ar    1  UNL1       -0.0024
      7 C          62.7307   83.5909   11.4362 C.ar    1  UNL1       -0.0003
      8 C          61.9412   84.7193   12.0306 C.ar    1  UNL1       -0.0003
      9 C          61.7300   85.9810   11.2474 C.ar    1  UNL1       -0.0029
     10 C          62.3083   86.1144    9.8697 C.ar    1  UNL1       -0.0061
     11 C          63.0978   84.9859    9.2753 C.ar    1  UNL1       -0.0029
     12 C          63.3090   83.7242   10.0586 C.ar    1  UNL1       -0.0003
     13 C          62.0971   87.3761    9.0866 C.3     1  UNL1        0.0992
     14 N          61.8992   88.6792    9.8027 N.3     1  UNL1       -0.2666
     15 C          60.5517   89.0320   10.3593 C.3     1  UNL1        0.0882
     16 C          60.3538   90.3350   11.0754 C.3     1  UNL1        0.0702
     17 C          59.0062   90.6879   11.6320 C.3     1  UNL1        0.0186
     18 N          61.5034   91.2853   11.2351 N.3     1  UNL1       -0.2974
     19 C          62.8508   90.9324   10.6786 C.3     1  UNL1        0.0702
     20 C          64.0005   91.8826   10.8382 C.3     1  UNL1        0.0186
     21 C          63.0487   89.6294    9.9624 C.3     1  UNL1        0.0882
     22 H          61.6276   91.4314   12.2369 H       1  UNL1        0.1232
     23 C          64.3726   83.6408   13.9464 C.3     1  UNL1        0.1202
     24 C          64.2509   85.7844   15.4093 C.2     1  UNL1        0.2337
     25 O          65.6248   86.1750   14.9513 O.2     1  UNL1       -0.2744
     26 N          63.6248   84.5173   14.9069 N.am    1  UNL1       -0.2733
     27 C          62.2509   84.1267   15.3649 C.3     1  UNL1        0.1152
     28 C          63.5031   86.6609   16.3697 C.3     1  UNL1        0.1523
     29 C          64.2793   91.4789   14.3535 C.3     1  UNL1        0.0557
     30 C          63.9033   90.3667   15.2872 C.ar    1  UNL1        0.1007
     31 C          64.0412   88.8989   15.0108 C.ar    1  UNL1        0.0541
     32 C          63.5465   88.1522   16.2140 C.ar    1  UNL1        0.1632
     33 O          63.1030   89.1585   17.2341 O.2     1  UNL1       -0.3576
     34 N          63.3235   90.5272   16.6613 N.ar    1  UNL1       -0.0817
@<TRIPOS>BOND
     1    29    30    1
     2    30    31   ar
     3    31    32   ar
     4    32    28    1
     5    28    24    1
     6    24    25    2
     7    24    26   am
     8    26    27    1
     9    26    23    1
    10    23     1    1
    11     1     2   ar
    12     2     3   ar
    13     3     4   ar
    14     4     5   ar
    15     5     6   ar
    16     6     7    1
    17     7     8   ar
    18     8     9   ar
    19     9    10   ar
    20    10    13    1
    21    13    14    1
    22    14    15    1
    23    15    16    1
    24    16    17    1
    25    16    18    1
    26    18    19    1
    27    19    20    1
    28    19    21    1
    29    10    11   ar
    30    11    12   ar
    31    32    33   ar
    32    33    34   ar
    33    34    30   ar
    34     6     1   ar
    35    12     7   ar
    36    21    14    1
    37    18    22    1
@<TRIPOS>MOLECULE
*****
 34 37 0 0 0
SMALL
GASTEIGER

@<TRIPOS>ATOM
      1 C          61.5365   86.9030    9.0686 C.ar    1  UNL1       -0.0023
      2 C          60.7756   85.9850    8.1585 C.ar    1  UNL1       -0.0026
      3 C          59.5180   86.4610    7.4938 C.ar    1  UNL1       -0.0003
      4 C          59.0213   87.8550    7.7392 C.ar    1  UNL1       -0.0000
      5 C          59.7822   88.7729    8.6493 C.ar    1  UNL1       -0.0003
      6 C          61.0398   88.2969    9.3140 C.ar    1  UNL1       -0.0024
      7 C          61.8008   89.2149   10.2241 C.ar    1  UNL1       -0.0003
      8 C          61.8120   88.9647   11.7031 C.ar    1  UNL1       -0.0003
      9 C          62.5730   89.8826   12.6132 C.ar    1  UNL1       -0.0029
     10 C          63.3227   91.0508   12.0444 C.ar    1  UNL1       -0.0061
     11 C          63.3114   91.3009   10.5655 C.ar    1  UNL1       -0.0029
     12 C          62.5504   90.3829    9.6553 C.ar    1  UNL1       -0.0003
     13 C          64.0836   91.9686   12.9546 C.3     1  UNL1        0.0992
     14 N          65.5814   92.0171   12.8895 N.3     1  UNL1       -0.2666
     15 C          66.2727   92.0805   11.5599 C.3     1  UNL1        0.0882
     16 C          67.7705   92.1290   11.4949 C.3     1  UNL1        0.0702
     17 C          68.4618   92.1924   10.1651 C.3     1  UNL1        0.0186
     18 N          68.5770   92.1140   12.7595 N.3     1  UNL1       -0.2974
     19 C          67.8857   92.0506   14.0891 C.3     1  UNL1        0.0702
     20 C          68.6922   92.0357   15.3538 C.3     1  UNL1        0.0186
     21 C          66.3879   92.0022   14.1542 C.3     1  UNL1        0.0882
     22 H          69.1393   92.9651   12.7602 H       1  UNL1        0.1232
     23 C          62.7941   86.4270    9.7334 C.3     1  UNL1        0.1202
     24 C          63.3584   84.2695   11.0664 C.2     1  UNL1        0.2337
     25 O          63.2672   85.0391   12.3506 O.2     1  UNL1       -0.2744
     26 N          63.1219   84.9634    9.7577 N.am    1  UNL1       -0.2733
     27 C          63.2131   84.1938    8.4735 C.3     1  UNL1        0.1152
     28 C          63.6861   82.8059   11.0908 C.3     1  UNL1        0.1523
     29 C          60.4101   80.2577   14.3549 C.3     1  UNL1        0.0557
     30 C          61.6588   80.7676   13.6984 C.ar    1  UNL1        0.1007
     31 C          61.7202   81.6929   12.5194 C.ar    1  UNL1        0.0541
     32 C          63.1646   81.9389   12.1981 C.ar    1  UNL1        0.1632
     33 O          63.9958   81.1656   13.1784 O.2     1  UNL1       -0.3576
     34 N          63.0652   80.4416   14.1057 N.ar    1  UNL1       -0.0817
@<TRIPOS>BOND
     1    29    30    1
     2    30    31   ar
     3    31    32   ar
     4    32    28    1
     5    28    24    1
     6    24    25    2
     7    24    26   am
     8    26    27    1
     9    26    23    1
    10    23     1    1
    11     1     2   ar
    12     2     3   ar
    13     3     4   ar
    14     4     5   ar
    15     5     6   ar
    16     6     7    1
    17     7     8   ar
    18     8     9   ar
    19     9    10   ar
    20    10    13    1
    21    13    14    1
    22    14    15    1
    23    15    16    1
    24    16    17    1
    25    16    18    1
    26    18    19    1
    27    19    20    1
    28    19    21    1
    29    10    11   ar
    30    11    12   ar
    31    32    33   ar
    32    33    34   ar
    33    34    30   ar
    34     6     1   ar
    35    12     7   ar
    36    21    14    1
    37    18    22    1
@<TRIPOS>MOLECULE
*****
 34 37 0 0 0
SMALL
GASTEIGER

@<TRIPOS>ATOM
      1 C          61.4106   86.8830    8.9221 C.ar    1  UNL1       -0.0023
      2 C          60.6612   86.0231    7.9480 C.ar    1  UNL1       -0.0026
      3 C          59.4542   86.5662    7.2423 C.ar    1  UNL1       -0.0003
      4 C          58.9965   87.9692    7.5108 C.ar    1  UNL1       -0.0000
      5 C          59.7459   88.8291    8.4849 C.ar    1  UNL1       -0.0003
      6 C          60.9529   88.2860    9.1906 C.ar    1  UNL1       -0.0024
      7 C          61.7024   89.1459   10.1648 C.ar    1  UNL1       -0.0003
      8 C          61.4980   88.9618   11.6393 C.ar    1  UNL1       -0.0003
      9 C          62.2473   89.8216   12.6135 C.ar    1  UNL1       -0.0029
     10 C          63.2012   90.8656   12.1132 C.ar    1  UNL1       -0.0061
     11 C          63.4056   91.0498   10.6386 C.ar    1  UNL1       -0.0029
     12 C          62.6561   90.1899    9.6644 C.ar    1  UNL1       -0.0003
     13 C          63.9505   91.7255   13.0873 C.3     1  UNL1        0.0992
     14 N          65.4400   91.8633   12.9748 N.3     1  UNL1       -0.2666
     15 C          66.2864   91.8895   14.2129 C.3     1  UNL1        0.0882
     16 C          67.7758   92.0273   14.1004 C.3     1  UNL1        0.0702
     17 C          68.6222   92.0536   15.3386 C.3     1  UNL1        0.0186
     18 N          68.4188   92.1388   12.7498 N.3     1  UNL1       -0.2974
     19 C          67.5724   92.1125   11.5118 C.3     1  UNL1        0.0702
     20 C          68.2154   92.2240   10.1611 C.3     1  UNL1        0.0186
     21 C          66.0830   91.9748   11.6243 C.3     1  UNL1        0.0882
     22 H          69.0777   91.3641   12.6726 H       1  UNL1        0.1232
     23 C          62.6177   86.3399    9.6279 C.3     1  UNL1        0.1202
     24 C          63.2200   83.9976   10.5772 C.2     1  UNL1        0.2337
     25 O          64.1408   83.7639    9.4164 O.2     1  UNL1       -0.2744
     26 N          62.4585   85.2856   10.6830 N.am    1  UNL1       -0.2733
     27 C          61.5377   85.5193   11.8438 C.3     1  UNL1        0.1152
     28 C          63.0608   82.9433   11.6323 C.3     1  UNL1        0.1523
     29 C          64.2052   85.4819   16.1185 C.3     1  UNL1        0.0557
     30 C          63.6477   84.4859   15.1452 C.ar    1  UNL1        0.1007
     31 C          63.8569   84.4924   13.6599 C.ar    1  UNL1        0.0541
     32 C          63.1217   83.3191   13.0831 C.ar    1  UNL1        0.1632
     33 O          62.4580   82.5874   14.2120 O.2     1  UNL1       -0.3576
     34 N          62.7831   83.3086   15.4865 N.ar    1  UNL1       -0.0817
@<TRIPOS>BOND
     1    29    30    1
     2    30    31   ar
     3    31    32   ar
     4    32    28    1
     5    28    24    1
     6    24    25    2
     7    24    26   am
     8    26    27    1
     9    26    23    1
    10    23     1    1
    11     1     2   ar
    12     2     3   ar
    13     3     4   ar
    14     4     5   ar
    15     5     6   ar
    16     6     7    1
    17     7     8   ar
    18     8     9   ar
    19     9    10   ar
    20    10    13    1
    21    13    14    1
    22    14    15    1
    23    15    16    1
    24    16    17    1
    25    16    18    1
    26    18    19    1
    27    19    20    1
    28    19    21    1
    29    10    11   ar
    30    11    12   ar
    31    32    33   ar
    32    33    34   ar
    33    34    30   ar
    34     6     1   ar
    35    12     7   ar
    36    21    14    1
    37    18    22    1
@<TRIPOS>MOLECULE
*****
 34 37 0 0 0
SMALL
GASTEIGER

@<TRIPOS>ATOM
      1 C          63.4064   82.4007   12.0999 C.ar    1  UNL1       -0.0023
      2 C          63.2980   81.1444   11.2875 C.ar    1  UNL1       -0.0026
      3 C          62.7603   79.8913   11.9123 C.ar    1  UNL1       -0.0003
      4 C          62.3310   79.8944   13.3496 C.ar    1  UNL1       -0.0000
      5 C          62.4394   81.1506   14.1620 C.ar    1  UNL1       -0.0003
      6 C          62.9771   82.4038   13.5371 C.ar    1  UNL1       -0.0024
      7 C          63.0855   83.6601   14.3496 C.ar    1  UNL1       -0.0003
      8 C          61.9629   84.0646   15.2585 C.ar    1  UNL1       -0.0003
      9 C          62.0713   85.3209   16.0709 C.ar    1  UNL1       -0.0029
     10 C          63.3023   86.1727   15.9744 C.ar    1  UNL1       -0.0061
     11 C          64.4248   85.7682   15.0654 C.ar    1  UNL1       -0.0029
     12 C          64.3164   84.5118   14.2530 C.ar    1  UNL1       -0.0003
     13 C          63.4106   87.4290   16.7868 C.3     1  UNL1        0.0992
     14 N          63.5132   88.7591   16.1010 N.3     1  UNL1       -0.2666
     15 C          63.4214   88.8413   14.6061 C.3     1  UNL1        0.0882
     16 C          63.5240   90.1714   13.9204 C.3     1  UNL1        0.0702
     17 C          63.4322   90.2535   12.4254 C.3     1  UNL1        0.0186
     18 N          63.7184   91.4193   14.7295 N.3     1  UNL1       -0.2974
     19 C          63.8102   91.3372   16.2244 C.3     1  UNL1        0.0702
     20 C          64.0046   92.5851   17.0337 C.3     1  UNL1        0.0186
     21 C          63.7076   90.0070   16.9102 C.3     1  UNL1        0.0882
     22 H          62.9329   92.0340   14.5161 H       1  UNL1        0.1232
     23 C          63.9441   83.6539   11.4751 C.3     1  UNL1        0.1202
     24 C          62.0855   85.3728   10.8910 C.2     1  UNL1        0.2337
     25 O          61.8533   85.6183   12.3524 O.2     1  UNL1       -0.2744
     26 N          63.1309   84.3906   10.4523 N.am    1  UNL1       -0.2733
     27 C          63.3631   84.1450    8.9909 C.3     1  UNL1        0.1152
     28 C          61.2723   86.1094    9.8682 C.3     1  UNL1        0.1523
     29 C          59.2132   90.6461   11.6174 C.3     1  UNL1        0.0557
     30 C          60.0405   89.6563   10.8519 C.ar    1  UNL1        0.1007
     31 C          59.9984   88.1649   11.0070 C.ar    1  UNL1        0.0541
     32 C          60.9869   87.5710   10.0478 C.ar    1  UNL1        0.1632
     33 O          61.6400   88.6953    9.2998 O.2     1  UNL1       -0.3576
     34 N          61.0551   89.9841    9.7967 N.ar    1  UNL1       -0.0817
@<TRIPOS>BOND
     1    29    30    1
     2    30    31   ar
     3    31    32   ar
     4    32    28    1
     5    28    24    1
     6    24    25    2
     7    24    26   am
     8    26    27    1
     9    26    23    1
    10    23     1    1
    11     1     2   ar
    12     2     3   ar
    13     3     4   ar
    14     4     5   ar
    15     5     6   ar
    16     6     7    1
    17     7     8   ar
    18     8     9   ar
    19     9    10   ar
    20    10    13    1
    21    13    14    1
    22    14    15    1
    23    15    16    1
    24    16    17    1
    25    16    18    1
    26    18    19    1
    27    19    20    1
    28    19    21    1
    29    10    11   ar
    30    11    12   ar
    31    32    33   ar
    32    33    34   ar
    33    34    30   ar
    34     6     1   ar
    35    12     7   ar
    36    21    14    1
    37    18    22    1
@<TRIPOS>MOLECULE
*****
 34 37 0 0 0
SMALL
GASTEIGER

@<TRIPOS>ATOM
      1 C          61.3719   87.3345   10.1311 C.ar    1  UNL1       -0.0023
      2 C          60.3889   86.3647    9.5455 C.ar    1  UNL1       -0.0026
      3 C          59.3798   86.8346    8.5402 C.ar    1  UNL1       -0.0003
      4 C          59.3537   88.2745    8.1204 C.ar    1  UNL1       -0.0000
      5 C          60.3367   89.2443    8.7060 C.ar    1  UNL1       -0.0003
      6 C          61.3458   88.7744    9.7114 C.ar    1  UNL1       -0.0024
      7 C          62.3289   89.7443   10.2970 C.ar    1  UNL1       -0.0003
      8 C          62.8105   90.9080    9.4823 C.ar    1  UNL1       -0.0003
      9 C          63.7935   91.8779   10.0679 C.ar    1  UNL1       -0.0029
     10 C          64.2950   91.6840   11.4683 C.ar    1  UNL1       -0.0061
     11 C          63.8135   90.5203   12.2830 C.ar    1  UNL1       -0.0029
     12 C          62.8304   89.5504   11.6973 C.ar    1  UNL1       -0.0003
     13 C          65.2781   92.6539   12.0538 C.3     1  UNL1        0.0992
     14 N          65.5845   92.6170   13.5218 N.3     1  UNL1       -0.2666
     15 C          66.8586   93.2175   14.0373 C.3     1  UNL1        0.0882
     16 C          67.1650   93.1806   15.5052 C.3     1  UNL1        0.0702
     17 C          68.4393   93.7812   16.0207 C.3     1  UNL1        0.0186
     18 N          66.1972   92.5433   16.4576 N.3     1  UNL1       -0.2974
     19 C          64.9230   91.9428   15.9421 C.3     1  UNL1        0.0702
     20 C          63.9552   91.3054   16.8945 C.3     1  UNL1        0.0186
     21 C          64.6167   91.9797   14.4741 C.3     1  UNL1        0.0882
     22 H          65.9326   93.2607   17.1326 H       1  UNL1        0.1232
     23 C          62.3811   86.8646   11.1365 C.3     1  UNL1        0.1202
     24 C          63.3424   84.7461   12.2932 C.2     1  UNL1        0.2337
     25 O          63.1874   85.4062   13.6311 O.2     1  UNL1       -0.2744
     26 N          62.9393   85.4753   11.0458 N.am    1  UNL1       -0.2733
     27 C          63.0943   84.8152    9.7079 C.3     1  UNL1        0.1152
     28 C          63.9006   83.3567   12.2024 C.3     1  UNL1        0.1523
     29 C          60.1855   80.1977   14.2270 C.3     1  UNL1        0.0557
     30 C          61.5187   80.7768   13.8563 C.ar    1  UNL1        0.1007
     31 C          61.7460   82.0247   13.0557 C.ar    1  UNL1        0.0541
     32 C          63.2263   82.2289   12.9257 C.ar    1  UNL1        0.1632
     33 O          63.9139   81.1071   13.6460 O.2     1  UNL1       -0.3576
     34 N          62.8586   80.2096   14.2211 N.ar    1  UNL1       -0.0817
@<TRIPOS>BOND
     1    29    30    1
     2    30    31   ar
     3    31    32   ar
     4    32    28    1
     5    28    24    1
     6    24    25    2
     7    24    26   am
     8    26    27    1
     9    26    23    1
    10    23     1    1
    11     1     2   ar
    12     2     3   ar
    13     3     4   ar
    14     4     5   ar
    15     5     6   ar
    16     6     7    1
    17     7     8   ar
    18     8     9   ar
    19     9    10   ar
    20    10    13    1
    21    13    14    1
    22    14    15    1
    23    15    16    1
    24    16    17    1
    25    16    18    1
    26    18    19    1
    27    19    20    1
    28    19    21    1
    29    10    11   ar
    30    11    12   ar
    31    32    33   ar
    32    33    34   ar
    33    34    30   ar
    34     6     1   ar
    35    12     7   ar
    36    21    14    1
    37    18    22    1
