@<TRIPOS>MOLECULE
*****
 33 36 0 0 0
SMALL
GASTEIGER

@<TRIPOS>ATOM
      1 C          61.5935   89.0135   11.3739 C.ar    1  UNL1        0.2490
      2 N          60.7740   89.7383   10.3478 N.ar    1  UNL1       -0.1863
      3 C          60.3448   89.0326    9.0957 C.ar    1  UNL1        0.2225
      4 N          60.7350   87.6020    8.8698 N.ar    1  UNL1       -0.1420
      5 N          61.5545   86.8771    9.8959 N.ar    1  UNL1       -0.2193
      6 C          62.0861   85.4755    9.9484 C.ar    1  UNL1        0.1371
      7 C          62.8438   85.3149   11.2329 C.ar    1  UNL1        0.1554
      8 C          62.7806   86.6173   11.9743 C.ar    1  UNL1        0.0359
      9 C          63.4046   86.9040   13.3079 C.3     1  UNL1        0.0360
     10 C          61.9837   87.5829   11.1480 C.ar    1  UNL1        0.1353
     11 O          62.0227   89.7192   12.6260 O.3     1  UNL1       -0.4328
     12 C          68.7414   92.9336   15.1058 C.3     1  UNL1        0.0521
     13 C          67.5148   92.4573   14.3857 C.2     1  UNL1        0.0591
     14 C          66.4559   91.5565   14.9489 C.2     1  UNL1        0.0182
     15 C          65.4184   91.3405   13.8873 C.2     1  UNL1        0.0455
     16 C          64.1473   90.5443   13.8733 C.2     1  UNL1        0.1752
     17 F          63.7295   89.7770   15.0926 F       1  UNL1       -0.2009
     18 C          63.2939   90.5154   12.6400 C.2     1  UNL1        0.1706
     19 C          63.7117   91.2827   11.4207 C.2     1  UNL1        0.0201
     20 C          64.9829   92.0789   11.4347 C.3     1  UNL1        0.0751
     21 C          65.8362   92.1078   12.6680 C.2     1  UNL1        0.0653
     22 N          67.1319   92.7980   12.9761 N.2     1  UNL1       -0.2536
     23 O          63.5423   84.0704   11.6950 O.3     1  UNL1       -0.4703
     24 C          62.8167   82.7576   11.6906 C.3     1  UNL1        0.2486
     25 C          62.5196   82.0605   12.9851 C.3     1  UNL1        0.2123
     26 C          62.8399   80.6036   13.1431 C.3     1  UNL1        0.0514
     27 O          61.9023   82.8202   14.1216 O.3     1  UNL1       -0.4474
     28 C          62.7595   83.6806   15.0019 C.2     1  UNL1        0.3331
     29 O          62.1492   84.8246   15.7560 O.2     1  UNL1       -0.2486
     30 C          64.2270   83.3970   15.1281 C.3     1  UNL1        0.1764
     31 N          65.2121   84.1535   14.2871 N.3     1  UNL1       -0.3119
     32 H          65.0758   83.9136   13.3052 H       1  UNL1        0.1193
     33 H          66.1606   83.9060   14.5691 H       1  UNL1        0.1193
@<TRIPOS>BOND
     1    12    13    1
     2    13    14    2
     3    14    15    1
     4    15    16    2
     5    16    17    1
     6    16    18    1
     7    18    11    1
     8    11     1    1
     9     1     2   ar
    10     2     3   ar
    11     3     4   ar
    12     4     5   ar
    13     5     6   ar
    14     6     7   ar
    15     7    23    1
    16    23    24    1
    17    24    25    1
    18    25    26    1
    19    25    27    1
    20    27    28    1
    21    28    29    2
    22    28    30    1
    23    30    31    1
    24     7     8   ar
    25     8     9    1
    26     8    10   ar
    27    18    19    2
    28    19    20    1
    29    20    21    1
    30    21    22    2
    31    22    13    1
    32    21    15    1
    33    10     1   ar
    34    10     5   ar
    35    31    32    1
    36    31    33    1
@<TRIPOS>MOLECULE
*****
 33 36 0 0 0
SMALL
GASTEIGER

@<TRIPOS>ATOM
      1 C          62.4988   87.0317   12.1568 C.ar    1  UNL1        0.2490
      2 N          61.5399   86.4600   11.1550 N.ar    1  UNL1       -0.1863
      3 C          60.8995   87.3539   10.1348 C.ar    1  UNL1        0.2225
      4 N          61.2179   88.8196   10.1165 N.ar    1  UNL1       -0.1420
      5 N          62.1768   89.3913   11.1183 N.ar    1  UNL1       -0.2193
      6 C          62.6802   90.7863   11.3430 C.ar    1  UNL1        0.1371
      7 C          63.6318   90.7546   12.5021 C.ar    1  UNL1        0.1554
      8 C          63.7165   89.3400   12.9937 C.ar    1  UNL1        0.0359
      9 C          64.5534   88.8533   14.1394 C.3     1  UNL1        0.0360
     10 C          62.8172   88.4974   12.1384 C.ar    1  UNL1        0.1353
     11 O          63.1392   86.1378   13.1770 O.3     1  UNL1       -0.4328
     12 C          62.8923   78.7982   10.4034 C.3     1  UNL1        0.0521
     13 C          62.8439   80.0820   11.1777 C.2     1  UNL1        0.0591
     14 C          63.2163   81.4392   10.6588 C.2     1  UNL1        0.0182
     15 C          63.0172   82.4300   11.7673 C.2     1  UNL1        0.0455
     16 C          63.2230   83.9142   11.8358 C.2     1  UNL1        0.1752
     17 F          63.7185   84.6591   10.6318 F       1  UNL1       -0.2009
     18 C          62.9334   84.6536   13.1084 C.2     1  UNL1        0.1706
     19 C          62.4379   83.9088   14.3125 C.2     1  UNL1        0.0201
     20 C          62.2321   82.4245   14.2439 C.3     1  UNL1        0.0751
     21 C          62.5217   81.6852   12.9713 C.2     1  UNL1        0.0653
     22 N          62.4146   80.2340   12.6069 N.2     1  UNL1       -0.2536
     23 O          64.3693   91.9309   13.0699 O.3     1  UNL1       -0.4703
     24 C          65.6383   92.4032   12.4246 C.3     1  UNL1        0.2486
     25 C          66.1223   93.8036   12.6580 C.3     1  UNL1        0.2123
     26 C          66.2421   94.7575   11.5064 C.3     1  UNL1        0.0514
     27 O          66.4866   94.2503   14.0428 O.3     1  UNL1       -0.4474
     28 C          67.2371   93.3266   14.9557 C.2     1  UNL1        0.3331
     29 O          68.6988   93.0750   14.7318 O.2     1  UNL1       -0.2486
     30 C          66.5260   92.6544   16.0925 C.3     1  UNL1        0.1764
     31 N          65.0266   92.6301   16.1299 N.3     1  UNL1       -0.3119
     32 H          64.6739   93.5801   16.2458 H       1  UNL1        0.1193
     33 H          64.7153   92.0540   16.9119 H       1  UNL1        0.1193
@<TRIPOS>BOND
     1    12    13    1
     2    13    14    2
     3    14    15    1
     4    15    16    2
     5    16    17    1
     6    16    18    1
     7    18    11    1
     8    11     1    1
     9     1     2   ar
    10     2     3   ar
    11     3     4   ar
    12     4     5   ar
    13     5     6   ar
    14     6     7   ar
    15     7    23    1
    16    23    24    1
    17    24    25    1
    18    25    26    1
    19    25    27    1
    20    27    28    1
    21    28    29    2
    22    28    30    1
    23    30    31    1
    24     7     8   ar
    25     8     9    1
    26     8    10   ar
    27    18    19    2
    28    19    20    1
    29    20    21    1
    30    21    22    2
    31    22    13    1
    32    21    15    1
    33    10     1   ar
    34    10     5   ar
    35    31    32    1
    36    31    33    1
@<TRIPOS>MOLECULE
*****
 33 36 0 0 0
SMALL
GASTEIGER

@<TRIPOS>ATOM
      1 C          62.3287   87.3065   11.6088 C.ar    1  UNL1        0.2490
      2 N          61.4511   86.7811   10.5116 N.ar    1  UNL1       -0.1863
      3 C          60.9566   87.7057    9.4390 C.ar    1  UNL1        0.2225
      4 N          61.3395   89.1558    9.4636 N.ar    1  UNL1       -0.1420
      5 N          62.2170   89.6812   10.5608 N.ar    1  UNL1       -0.2193
      6 C          62.7564   91.0516   10.8454 C.ar    1  UNL1        0.1371
      7 C          63.5843   90.9740   12.0938 C.ar    1  UNL1        0.1554
      8 C          63.5566   89.5555   12.5808 C.ar    1  UNL1        0.0359
      9 C          64.2518   89.0285   13.8010 C.3     1  UNL1        0.0360
     10 C          62.7116   88.7565   11.6334 C.ar    1  UNL1        0.1353
     11 O          62.8232   86.3818   12.6813 O.3     1  UNL1       -0.4328
     12 C          62.1159   78.6356   13.7395 C.3     1  UNL1        0.0521
     13 C          62.3589   80.0428   13.2805 C.2     1  UNL1        0.0591
     14 C          62.0641   81.2886   14.0623 C.2     1  UNL1        0.0182
     15 C          62.4624   82.4671   13.2240 C.2     1  UNL1        0.0455
     16 C          62.4023   83.9444   13.4764 C.2     1  UNL1        0.1752
     17 F          61.8614   84.4619   14.7763 F       1  UNL1       -0.2009
     18 C          62.8832   84.9044   12.4289 C.2     1  UNL1        0.1706
     19 C          63.4241   84.3870   11.1290 C.2     1  UNL1        0.0201
     20 C          63.4841   82.9096   10.8767 C.3     1  UNL1        0.0751
     21 C          63.0033   81.9496   11.9241 C.2     1  UNL1        0.0653
     22 N          62.9393   80.4514   11.9591 N.2     1  UNL1       -0.2536
     23 O          64.3120   92.1145   12.7415 O.3     1  UNL1       -0.4703
     24 C          65.6028   92.6084   12.1584 C.3     1  UNL1        0.2486
     25 C          66.1292   93.9603   12.5394 C.3     1  UNL1        0.2123
     26 C          66.2690   95.0314   11.4985 C.3     1  UNL1        0.0514
     27 O          66.5158   94.2412   13.9612 O.3     1  UNL1       -0.4474
     28 C          67.3027   93.2281   14.7386 C.2     1  UNL1        0.3331
     29 O          68.5060   92.5789   14.1217 O.2     1  UNL1       -0.2486
     30 C          66.8864   92.8642   16.1330 C.3     1  UNL1        0.1764
     31 N          65.4307   92.8081   16.4905 N.3     1  UNL1       -0.3119
     32 H          65.0298   93.7442   16.4315 H       1  UNL1        0.1193
     33 H          65.3276   92.4534   17.4413 H       1  UNL1        0.1193
@<TRIPOS>BOND
     1    12    13    1
     2    13    14    2
     3    14    15    1
     4    15    16    2
     5    16    17    1
     6    16    18    1
     7    18    11    1
     8    11     1    1
     9     1     2   ar
    10     2     3   ar
    11     3     4   ar
    12     4     5   ar
    13     5     6   ar
    14     6     7   ar
    15     7    23    1
    16    23    24    1
    17    24    25    1
    18    25    26    1
    19    25    27    1
    20    27    28    1
    21    28    29    2
    22    28    30    1
    23    30    31    1
    24     7     8   ar
    25     8     9    1
    26     8    10   ar
    27    18    19    2
    28    19    20    1
    29    20    21    1
    30    21    22    2
    31    22    13    1
    32    21    15    1
    33    10     1   ar
    34    10     5   ar
    35    31    32    1
    36    31    33    1
@<TRIPOS>MOLECULE
*****
 33 36 0 0 0
SMALL
GASTEIGER

@<TRIPOS>ATOM
      1 C          62.4104   86.7773   11.8255 C.ar    1  UNL1        0.2490
      2 N          61.4993   86.1472   10.8142 N.ar    1  UNL1       -0.1863
      3 C          60.8395   86.9955    9.7676 C.ar    1  UNL1        0.2225
      4 N          61.0909   88.4738    9.7324 N.ar    1  UNL1       -0.1420
      5 N          62.0020   89.1039   10.7437 N.ar    1  UNL1       -0.2193
      6 C          62.4365   90.5238   10.9563 C.ar    1  UNL1        0.1371
      7 C          63.3648   90.5531   12.1343 C.ar    1  UNL1        0.1554
      8 C          63.5040   89.1513   12.6496 C.ar    1  UNL1        0.0359
      9 C          64.3388   88.7207   13.8191 C.3     1  UNL1        0.0360
     10 C          62.6618   88.2556   11.7903 C.ar    1  UNL1        0.1353
     11 O          63.0701   85.9291   12.8720 O.3     1  UNL1       -0.4328
     12 C          62.9173   78.5005   10.3392 C.3     1  UNL1        0.0521
     13 C          62.8561   79.8076   11.0724 C.2     1  UNL1        0.0591
     14 C          63.1979   81.1535   10.5053 C.2     1  UNL1        0.0182
     15 C          62.9955   82.1761   11.5839 C.2     1  UNL1        0.0455
     16 C          63.1760   83.6650   11.6020 C.2     1  UNL1        0.1752
     17 F          63.6428   84.3790   10.3681 F       1  UNL1       -0.2009
     18 C          62.8896   84.4401   12.8539 C.2     1  UNL1        0.1706
     19 C          62.4228   83.7261   14.0878 C.2     1  UNL1        0.0201
     20 C          62.2423   82.2371   14.0696 C.3     1  UNL1        0.0751
     21 C          62.5287   81.4621   12.8177 C.2     1  UNL1        0.0653
     22 N          62.4426   79.9983   12.5016 N.2     1  UNL1       -0.2536
     23 O          64.0359   91.7704   12.6978 O.3     1  UNL1       -0.4703
     24 C          64.8467   92.6613   11.8040 C.3     1  UNL1        0.2486
     25 C          66.2376   93.0576   12.2020 C.3     1  UNL1        0.2123
     26 C          67.0400   92.1708   13.1075 C.3     1  UNL1        0.0514
     27 O          66.8261   94.3406   11.6946 O.3     1  UNL1       -0.4474
     28 C          67.1973   94.4748   10.2475 C.2     1  UNL1        0.3331
     29 O          67.0169   95.7882    9.5456 O.2     1  UNL1       -0.2486
     30 C          67.7488   93.2958    9.5021 C.3     1  UNL1        0.1764
     31 N          69.1710   92.8706    9.7178 N.3     1  UNL1       -0.3119
     32 H          69.7989   93.5979    9.3754 H       1  UNL1        0.1193
     33 H          69.3471   92.0031    9.2109 H       1  UNL1        0.1193
@<TRIPOS>BOND
     1    12    13    1
     2    13    14    2
     3    14    15    1
     4    15    16    2
     5    16    17    1
     6    16    18    1
     7    18    11    1
     8    11     1    1
     9     1     2   ar
    10     2     3   ar
    11     3     4   ar
    12     4     5   ar
    13     5     6   ar
    14     6     7   ar
    15     7    23    1
    16    23    24    1
    17    24    25    1
    18    25    26    1
    19    25    27    1
    20    27    28    1
    21    28    29    2
    22    28    30    1
    23    30    31    1
    24     7     8   ar
    25     8     9    1
    26     8    10   ar
    27    18    19    2
    28    19    20    1
    29    20    21    1
    30    21    22    2
    31    22    13    1
    32    21    15    1
    33    10     1   ar
    34    10     5   ar
    35    31    32    1
    36    31    33    1
@<TRIPOS>MOLECULE
*****
 33 36 0 0 0
SMALL
GASTEIGER

@<TRIPOS>ATOM
      1 C          61.7178   87.9036   11.3146 C.ar    1  UNL1        0.2490
      2 N          62.4884   86.6707   11.6834 N.ar    1  UNL1       -0.1863
      3 C          62.5395   85.5074   10.7378 C.ar    1  UNL1        0.2225
      4 N          61.8201   85.5769    9.4235 N.ar    1  UNL1       -0.1420
      5 N          61.0495   86.8098    9.0547 N.ar    1  UNL1       -0.2193
      6 C          60.2470   87.1656    7.8383 C.ar    1  UNL1        0.1371
      7 C          59.7000   88.5487    8.0321 C.ar    1  UNL1        0.1554
      8 C          60.1643   89.0478    9.3682 C.ar    1  UNL1        0.0359
      9 C          59.8498   90.3866    9.9672 C.3     1  UNL1        0.0360
     10 C          60.9983   87.9732   10.0002 C.ar    1  UNL1        0.1353
     11 O          61.6666   89.0670   12.2601 O.3     1  UNL1       -0.4328
     12 C          67.6277   93.3590   15.0291 C.3     1  UNL1        0.0521
     13 C          66.5480   92.6684   14.2498 C.2     1  UNL1        0.0591
     14 C          65.5779   91.6601   14.7903 C.2     1  UNL1        0.0182
     15 C          64.6791   91.2334   13.6677 C.2     1  UNL1        0.0455
     16 C          63.5368   90.2631   13.6099 C.2     1  UNL1        0.1752
     17 F          63.1221   89.5185   14.8443 F       1  UNL1       -0.2009
     18 C          62.8090   90.0373   12.3178 C.2     1  UNL1        0.1706
     19 C          63.2237   90.7819   11.0835 C.2     1  UNL1        0.0201
     20 C          64.3661   91.7523   11.1413 C.3     1  UNL1        0.0751
     21 C          65.0938   91.9780   12.4333 C.2     1  UNL1        0.0653
     22 N          66.2488   92.8649   12.7931 N.2     1  UNL1       -0.2536
     23 O          58.8396   89.3007    7.0603 O.3     1  UNL1       -0.4703
     24 C          59.4709   90.0582    5.9299 C.3     1  UNL1        0.2486
     25 C          58.7326   91.1919    5.2822 C.3     1  UNL1        0.2123
     26 C          57.2484   91.1040    5.0830 C.3     1  UNL1        0.0514
     27 O          59.4785   92.4136    4.8335 O.3     1  UNL1       -0.4474
     28 C          60.5695   92.2929    3.8112 C.2     1  UNL1        0.3331
     29 O          61.8265   91.5437    4.1407 O.2     1  UNL1       -0.2486
     30 C          60.4035   92.9214    2.4595 C.3     1  UNL1        0.1764
     31 N          59.1509   92.6822    1.6698 N.3     1  UNL1       -0.3119
     32 H          59.0966   91.6979    1.4082 H       1  UNL1        0.1193
     33 H          59.1647   93.2576    0.8277 H       1  UNL1        0.1193
@<TRIPOS>BOND
     1    12    13    1
     2    13    14    2
     3    14    15    1
     4    15    16    2
     5    16    17    1
     6    16    18    1
     7    18    11    1
     8    11     1    1
     9     1     2   ar
    10     2     3   ar
    11     3     4   ar
    12     4     5   ar
    13     5     6   ar
    14     6     7   ar
    15     7    23    1
    16    23    24    1
    17    24    25    1
    18    25    26    1
    19    25    27    1
    20    27    28    1
    21    28    29    2
    22    28    30    1
    23    30    31    1
    24     7     8   ar
    25     8     9    1
    26     8    10   ar
    27    18    19    2
    28    19    20    1
    29    20    21    1
    30    21    22    2
    31    22    13    1
    32    21    15    1
    33    10     1   ar
    34    10     5   ar
    35    31    32    1
    36    31    33    1
@<TRIPOS>MOLECULE
*****
 33 36 0 0 0
SMALL
GASTEIGER

@<TRIPOS>ATOM
      1 C          61.5215   88.9609   11.3595 C.ar    1  UNL1        0.2490
      2 N          60.6430   89.6409   10.3517 N.ar    1  UNL1       -0.1863
      3 C          60.1807   88.8951    9.1351 C.ar    1  UNL1        0.2225
      4 N          60.5971   87.4693    8.9262 N.ar    1  UNL1       -0.1420
      5 N          61.4757   86.7893    9.9339 N.ar    1  UNL1       -0.2193
      6 C          62.0440   85.4025    9.9967 C.ar    1  UNL1        0.1371
      7 C          62.8574   85.2912   11.2520 C.ar    1  UNL1        0.1554
      8 C          62.7918   86.6092   11.9652 C.ar    1  UNL1        0.0359
      9 C          63.4624   86.9428   13.2648 C.3     1  UNL1        0.0360
     10 C          61.9379   87.5351   11.1506 C.ar    1  UNL1        0.1353
     11 O          61.9837   89.7066   12.5761 O.3     1  UNL1       -0.4328
     12 C          67.5685   94.5669    9.9662 C.3     1  UNL1        0.0521
     13 C          66.6656   93.6207   10.7007 C.2     1  UNL1        0.0591
     14 C          65.3689   93.0647   10.1913 C.2     1  UNL1        0.0182
     15 C          64.8028   92.1648   11.2494 C.2     1  UNL1        0.0455
     16 C          63.5476   91.3455   11.3038 C.2     1  UNL1        0.1752
     17 F          62.6008   91.3457   10.1404 F       1  UNL1       -0.2009
     18 C          63.2390   90.5259   12.5217 C.2     1  UNL1        0.1706
     19 C          64.1858   90.5257   13.6851 C.2     1  UNL1        0.0201
     20 C          65.4411   91.3451   13.6307 C.3     1  UNL1        0.0751
     21 C          65.7496   92.1646   12.4128 C.2     1  UNL1        0.0653
     22 N          66.9008   93.0644   12.0737 N.2     1  UNL1       -0.2536
     23 O          63.6051   84.0753   11.7133 O.3     1  UNL1       -0.4703
     24 C          62.9183   82.7424   11.7520 C.3     1  UNL1        0.2486
     25 C          62.5471   82.1279   13.0691 C.3     1  UNL1        0.2123
     26 C          62.7992   80.6696   13.3139 C.3     1  UNL1        0.0514
     27 O          61.9240   82.9717   14.1414 O.3     1  UNL1       -0.4474
     28 C          62.7925   83.7802   15.0590 C.2     1  UNL1        0.3331
     29 O          62.2002   84.9062   15.8535 O.2     1  UNL1       -0.2486
     30 C          64.2533   83.4627   15.1822 C.3     1  UNL1        0.1764
     31 N          65.2522   84.1832   14.3261 N.3     1  UNL1       -0.3119
     32 H          65.1051   83.9332   13.3483 H       1  UNL1        0.1193
     33 H          66.1958   83.9166   14.6070 H       1  UNL1        0.1193
@<TRIPOS>BOND
     1    12    13    1
     2    13    14    2
     3    14    15    1
     4    15    16    2
     5    16    17    1
     6    16    18    1
     7    18    11    1
     8    11     1    1
     9     1     2   ar
    10     2     3   ar
    11     3     4   ar
    12     4     5   ar
    13     5     6   ar
    14     6     7   ar
    15     7    23    1
    16    23    24    1
    17    24    25    1
    18    25    26    1
    19    25    27    1
    20    27    28    1
    21    28    29    2
    22    28    30    1
    23    30    31    1
    24     7     8   ar
    25     8     9    1
    26     8    10   ar
    27    18    19    2
    28    19    20    1
    29    20    21    1
    30    21    22    2
    31    22    13    1
    32    21    15    1
    33    10     1   ar
    34    10     5   ar
    35    31    32    1
    36    31    33    1
@<TRIPOS>MOLECULE
*****
 33 36 0 0 0
SMALL
GASTEIGER

@<TRIPOS>ATOM
      1 C          63.5001   88.0129   13.6596 C.ar    1  UNL1        0.2490
      2 N          64.3209   87.6855   14.8716 N.ar    1  UNL1       -0.1863
      3 C          64.7550   86.2720   15.1240 C.ar    1  UNL1        0.2225
      4 N          64.3683   85.1860   14.1643 N.ar    1  UNL1       -0.1420
      5 N          63.5475   85.5135   12.9523 N.ar    1  UNL1       -0.2193
      6 C          63.0186   84.6602   11.8378 C.ar    1  UNL1        0.1371
      7 C          62.2577   85.5462   10.8966 C.ar    1  UNL1        0.1554
      8 C          62.3163   86.9472   11.4295 C.ar    1  UNL1        0.0359
      9 C          61.6880   88.1562   10.8020 C.3     1  UNL1        0.0360
     10 C          63.1134   86.9269   12.6999 C.ar    1  UNL1        0.1353
     11 O          63.0661   89.4264   13.4073 O.3     1  UNL1       -0.4328
     12 C          67.1124   95.1933    9.9442 C.3     1  UNL1        0.0521
     13 C          66.5265   94.1272   10.8217 C.2     1  UNL1        0.0591
     14 C          65.3436   93.2656   10.4923 C.2     1  UNL1        0.0182
     15 C          65.1066   92.3414   11.6498 C.2     1  UNL1        0.0455
     16 C          64.0810   91.2730   11.8873 C.2     1  UNL1        0.1752
     17 F          63.0446   90.9825   10.8425 F       1  UNL1       -0.2009
     18 C          64.0917   90.4949   13.1697 C.2     1  UNL1        0.1706
     19 C          65.1280   90.7853   14.2145 C.2     1  UNL1        0.0201
     20 C          66.1536   91.8538   13.9769 C.3     1  UNL1        0.0751
     21 C          66.1429   92.6319   12.6946 C.2     1  UNL1        0.0653
     22 N          67.0204   93.7355   12.1828 N.2     1  UNL1       -0.2536
     23 O          61.5605   85.1083    9.6427 O.3     1  UNL1       -0.4703
     24 C          61.8946   85.7582    8.3328 C.3     1  UNL1        0.2486
     25 C          61.0936   85.4311    7.1074 C.3     1  UNL1        0.2123
     26 C          61.6513   84.4976    6.0740 C.3     1  UNL1        0.0514
     27 O          59.7351   86.0373    6.9155 O.3     1  UNL1       -0.4474
     28 C          59.3022   87.1929    7.7682 C.2     1  UNL1        0.3331
     29 O          58.8388   86.9548    9.1748 O.2     1  UNL1       -0.2486
     30 C          59.3326   88.5865    7.2143 C.3     1  UNL1        0.1764
     31 N          60.0365   89.6771    7.9661 N.3     1  UNL1       -0.3119
     32 H          59.5495   89.8533    8.8448 H       1  UNL1        0.1193
     33 H          60.0424   90.5283    7.4041 H       1  UNL1        0.1193
@<TRIPOS>BOND
     1    12    13    1
     2    13    14    2
     3    14    15    1
     4    15    16    2
     5    16    17    1
     6    16    18    1
     7    18    11    1
     8    11     1    1
     9     1     2   ar
    10     2     3   ar
    11     3     4   ar
    12     4     5   ar
    13     5     6   ar
    14     6     7   ar
    15     7    23    1
    16    23    24    1
    17    24    25    1
    18    25    26    1
    19    25    27    1
    20    27    28    1
    21    28    29    2
    22    28    30    1
    23    30    31    1
    24     7     8   ar
    25     8     9    1
    26     8    10   ar
    27    18    19    2
    28    19    20    1
    29    20    21    1
    30    21    22    2
    31    22    13    1
    32    21    15    1
    33    10     1   ar
    34    10     5   ar
    35    31    32    1
    36    31    33    1
@<TRIPOS>MOLECULE
*****
 33 36 0 0 0
SMALL
GASTEIGER

@<TRIPOS>ATOM
      1 C          62.4650   87.6898   11.6792 C.ar    1  UNL1        0.2490
      2 N          61.5996   87.3139   10.5131 N.ar    1  UNL1       -0.1863
      3 C          61.2444   88.3422    9.4805 C.ar    1  UNL1        0.2225
      4 N          61.7545   89.7464    9.6139 N.ar    1  UNL1       -0.1420
      5 N          62.6199   90.1224   10.7799 N.ar    1  UNL1       -0.2193
      6 C          63.2655   91.4176   11.1744 C.ar    1  UNL1        0.1371
      7 C          64.0197   91.1898   12.4508 C.ar    1  UNL1        0.1554
      8 C          63.8402   89.7538   12.8452 C.ar    1  UNL1        0.0359
      9 C          64.4235   89.0934   14.0592 C.3     1  UNL1        0.0360
     10 C          62.9751   89.0940   11.8126 C.ar    1  UNL1        0.1353
     11 O          62.8202   86.6615   12.7118 O.3     1  UNL1       -0.4328
     12 C          62.3241   78.8441   13.2261 C.3     1  UNL1        0.0521
     13 C          62.4986   80.2871   12.8558 C.2     1  UNL1        0.0591
     14 C          62.2774   81.4626   13.7610 C.2     1  UNL1        0.0182
     15 C          62.5670   82.7101   12.9800 C.2     1  UNL1        0.0455
     16 C          62.5180   84.1620   13.3532 C.2     1  UNL1        0.1752
     17 F          62.1179   84.5665   14.7411 F       1  UNL1       -0.2009
     18 C          62.8692   85.2096   12.3386 C.2     1  UNL1        0.1706
     19 C          63.2693   84.8050   10.9507 C.2     1  UNL1        0.0201
     20 C          63.3183   83.3530   10.5774 C.3     1  UNL1        0.0751
     21 C          62.9671   82.3056   11.5921 C.2     1  UNL1        0.0653
     22 N          62.9249   80.8081   11.5154 N.2     1  UNL1       -0.2536
     23 O          64.8139   92.2176   13.2011 O.3     1  UNL1       -0.4703
     24 C          65.5469   93.2916   12.4534 C.3     1  UNL1        0.2486
     25 C          66.4791   92.9254   11.3367 C.3     1  UNL1        0.2123
     26 C          67.6261   91.9932   11.5924 C.3     1  UNL1        0.0514
     27 O          66.2642   93.4914    9.9643 O.3     1  UNL1       -0.4474
     28 C          67.2539   94.4609    9.3895 C.2     1  UNL1        0.3331
     29 O          68.7010   94.0809    9.2829 O.2     1  UNL1       -0.2486
     30 C          66.7966   95.8105    8.9211 C.3     1  UNL1        0.1764
     31 N          66.1201   95.9529    7.5899 N.3     1  UNL1       -0.3119
     32 H          66.7820   95.7296    6.8466 H       1  UNL1        0.1193
     33 H          65.7919   96.9119    7.4762 H       1  UNL1        0.1193
@<TRIPOS>BOND
     1    12    13    1
     2    13    14    2
     3    14    15    1
     4    15    16    2
     5    16    17    1
     6    16    18    1
     7    18    11    1
     8    11     1    1
     9     1     2   ar
    10     2     3   ar
    11     3     4   ar
    12     4     5   ar
    13     5     6   ar
    14     6     7   ar
    15     7    23    1
    16    23    24    1
    17    24    25    1
    18    25    26    1
    19    25    27    1
    20    27    28    1
    21    28    29    2
    22    28    30    1
    23    30    31    1
    24     7     8   ar
    25     8     9    1
    26     8    10   ar
    27    18    19    2
    28    19    20    1
    29    20    21    1
    30    21    22    2
    31    22    13    1
    32    21    15    1
    33    10     1   ar
    34    10     5   ar
    35    31    32    1
    36    31    33    1
@<TRIPOS>MOLECULE
*****
 33 36 0 0 0
SMALL
GASTEIGER

@<TRIPOS>ATOM
      1 C          63.4357   87.9764   13.5814 C.ar    1  UNL1        0.2490
      2 N          64.2304   87.6311   14.8058 N.ar    1  UNL1       -0.1863
      3 C          64.6208   86.2071   15.0696 C.ar    1  UNL1        0.2225
      4 N          64.2165   85.1283   14.1091 N.ar    1  UNL1       -0.1420
      5 N          63.4217   85.4735   12.8848 N.ar    1  UNL1       -0.2193
      6 C          62.8838   84.6307   11.7666 C.ar    1  UNL1        0.1371
      7 C          62.1610   85.5338   10.8117 C.ar    1  UNL1        0.1554
      8 C          62.2522   86.9348   11.3397 C.ar    1  UNL1        0.0359
      9 C          61.6669   88.1584   10.6990 C.3     1  UNL1        0.0360
     10 C          63.0313   86.8976   12.6209 C.ar    1  UNL1        0.1353
     11 O          63.0453   89.4005   13.3176 O.3     1  UNL1       -0.4328
     12 C          68.6114   94.2985   15.8965 C.3     1  UNL1        0.0521
     13 C          67.5885   93.4939   15.1507 C.2     1  UNL1        0.0591
     14 C          66.7353   92.4022   15.7254 C.2     1  UNL1        0.0182
     15 C          65.8586   91.8733   14.6291 C.2     1  UNL1        0.0455
     16 C          64.8171   90.7941   14.6094 C.2     1  UNL1        0.1752
     17 F          64.5056   90.0293   15.8616 F       1  UNL1       -0.2009
     18 C          64.0868   90.4797   13.3373 C.2     1  UNL1        0.1706
     19 C          64.3983   91.2445   12.0851 C.2     1  UNL1        0.0201
     20 C          65.4399   92.3237   12.1049 C.3     1  UNL1        0.0751
     21 C          66.1701   92.6381   13.3769 C.2     1  UNL1        0.0653
     22 N          67.2392   93.6396   13.6992 N.2     1  UNL1       -0.2536
     23 O          61.4687   85.1103    9.5502 O.3     1  UNL1       -0.4703
     24 C          61.8462   85.7370    8.2408 C.3     1  UNL1        0.2486
     25 C          61.0779   85.3981    6.9979 C.3     1  UNL1        0.2123
     26 C          61.6503   84.4336    6.0018 C.3     1  UNL1        0.0514
     27 O          59.7371   86.0236    6.7511 O.3     1  UNL1       -0.4474
     28 C          59.2686   87.1582    7.6132 C.2     1  UNL1        0.3331
     29 O          58.4051   86.8848    8.8088 O.2     1  UNL1       -0.2486
     30 C          59.6638   88.5662    7.2797 C.3     1  UNL1        0.1764
     31 N          58.8002   89.3931    6.3739 N.3     1  UNL1       -0.3119
     32 H          58.8042   88.9884    5.4376 H       1  UNL1        0.1193
     33 H          59.1631   90.3455    6.3342 H       1  UNL1        0.1193
@<TRIPOS>BOND
     1    12    13    1
     2    13    14    2
     3    14    15    1
     4    15    16    2
     5    16    17    1
     6    16    18    1
     7    18    11    1
     8    11     1    1
     9     1     2   ar
    10     2     3   ar
    11     3     4   ar
    12     4     5   ar
    13     5     6   ar
    14     6     7   ar
    15     7    23    1
    16    23    24    1
    17    24    25    1
    18    25    26    1
    19    25    27    1
    20    27    28    1
    21    28    29    2
    22    28    30    1
    23    30    31    1
    24     7     8   ar
    25     8     9    1
    26     8    10   ar
    27    18    19    2
    28    19    20    1
    29    20    21    1
    30    21    22    2
    31    22    13    1
    32    21    15    1
    33    10     1   ar
    34    10     5   ar
    35    31    32    1
    36    31    33    1
