@<TRIPOS>MOLECULE
*****
 28 32 0 0 0
SMALL
GASTEIGER

@<TRIPOS>ATOM
      1 S          63.4914   90.0563   14.1486 S.3     1  UNL1       -0.0673
      2 C          63.8730   90.7753   12.8887 C.ar    1  UNL1        0.1935
      3 N          63.1477   90.7022   11.5777 N.ar    1  UNL1       -0.1221
      4 N          63.8734   91.5753   10.5972 N.ar    1  UNL1       -0.1282
      5 C          65.0471   92.1878   11.3023 C.ar    1  UNL1        0.1668
      6 N          65.0469   91.6934   12.7185 N.ar    1  UNL1       -0.2923
      7 C          66.0458   93.1295   10.6973 C.ar    1  UNL1        0.0390
      8 C          67.2435   92.5892    9.9738 C.ar    1  UNL1        0.0237
      9 C          68.2421   93.5308    9.3689 C.ar    1  UNL1        0.0990
     10 N          68.0431   95.0129    9.4874 N.ar    1  UNL1       -0.2423
     11 C          66.8453   95.5532   10.2108 C.ar    1  UNL1        0.0990
     12 C          65.8466   94.6115   10.8158 C.ar    1  UNL1        0.0237
     13 C          66.0453   92.0538   13.7783 C.3     1  UNL1        0.0889
     14 C          66.5792   93.0337   14.7807 C.3     1  UNL1        0.0246
     15 C          67.2408   91.6982   14.6115 C.3     1  UNL1        0.0246
     16 C          64.4158   89.0322   14.7372 C.3     1  UNL1        0.1340
     17 C          63.3628   85.3027   14.5192 C.ar    1  UNL1        0.2598
     18 N          63.8999   86.5516   13.8854 N.ar    1  UNL1       -0.1902
     19 C          63.9444   87.6220   14.9353 C.ar    1  UNL1        0.1921
     20 N          63.4348   87.0346   16.2180 N.ar    1  UNL1       -0.0593
     21 O          63.0753   85.6013   15.9608 O.2     1  UNL1       -0.3327
     22 CL         63.9695   82.2483   10.3596 Cl      1  UNL1       -0.0613
     23 C          63.4537   82.4592   11.7523 C.ar    1  UNL1        0.1385
     24 C          63.6661   83.7754   12.4394 C.ar    1  UNL1        0.0355
     25 C          63.1503   83.9863   13.8321 C.ar    1  UNL1        0.0600
     26 C          62.4221   82.8810   14.5376 C.ar    1  UNL1        0.0255
     27 C          62.2097   81.5647   13.8504 C.ar    1  UNL1        0.1000
     28 N          62.7255   81.3538   12.4578 N.ar    1  UNL1       -0.2324
@<TRIPOS>BOND
     1    22    23    1
     2    23    24   ar
     3    24    25   ar
     4    25    17    1
     5    17    18   ar
     6    18    19   ar
     7    19    16    1
     8    16     1    1
     9     1     2    1
    10     2     3   ar
    11     3     4   ar
    12     4     5   ar
    13     5     7    1
    14     7     8   ar
    15     8     9   ar
    16     9    10   ar
    17    10    11   ar
    18    11    12   ar
    19     5     6   ar
    20     6    13    1
    21    13    14    1
    22    14    15    1
    23    19    20   ar
    24    20    21   ar
    25    25    26   ar
    26    26    27   ar
    27    27    28   ar
    28    28    23   ar
    29    21    17   ar
    30     6     2   ar
    31    15    13    1
    32    12     7   ar
@<TRIPOS>MOLECULE
*****
 28 32 0 0 0
SMALL
GASTEIGER

@<TRIPOS>ATOM
      1 S          63.8218   90.0844   14.3495 S.3     1  UNL1       -0.0673
      2 C          64.1055   90.8439   13.0876 C.ar    1  UNL1        0.1935
      3 N          63.2590   90.8434   11.8491 N.ar    1  UNL1       -0.1221
      4 N          63.9157   91.7366   10.8385 N.ar    1  UNL1       -0.1282
      5 C          65.1679   92.2889   11.4525 C.ar    1  UNL1        0.1668
      6 N          65.2852   91.7373   12.8424 N.ar    1  UNL1       -0.2923
      7 C          66.1334   93.2281   10.7922 C.ar    1  UNL1        0.0390
      8 C          65.9605   94.7104   10.9440 C.ar    1  UNL1        0.0237
      9 C          66.9259   95.6496   10.2838 C.ar    1  UNL1        0.0990
     10 N          68.0643   95.1066    9.4718 N.ar    1  UNL1       -0.2423
     11 C          68.2372   93.6243    9.3201 C.ar    1  UNL1        0.0990
     12 C          67.2718   92.6851    9.9803 C.ar    1  UNL1        0.0237
     13 C          66.3885   92.0280   13.8161 C.3     1  UNL1        0.0889
     14 C          67.3500   92.9964   14.4387 C.3     1  UNL1        0.0246
     15 C          67.3380   91.5629   14.8801 C.3     1  UNL1        0.0246
     16 C          64.3596   88.6952   14.5258 C.3     1  UNL1        0.1340
     17 C          63.1329   85.3342   13.0213 C.ar    1  UNL1        0.2598
     18 N          63.8163   86.1118   14.1067 N.ar    1  UNL1       -0.1902
     19 C          63.7876   87.5624   13.7261 C.ar    1  UNL1        0.1921
     20 N          63.0863   87.6813   12.4054 N.ar    1  UNL1       -0.0593
     21 O          62.6817   86.3042   11.9698 O.2     1  UNL1       -0.3327
     22 CL         63.1616   80.8408   10.4119 Cl      1  UNL1       -0.0613
     23 C          62.9496   81.6008   11.6876 C.ar    1  UNL1        0.1385
     24 C          63.1472   83.0874   11.7166 C.ar    1  UNL1        0.0355
     25 C          62.9353   83.8475   12.9923 C.ar    1  UNL1        0.0600
     26 C          62.5257   83.1209   14.2390 C.ar    1  UNL1        0.0255
     27 C          62.3281   81.6343   14.2100 C.ar    1  UNL1        0.1000
     28 N          62.5401   80.8742   12.9343 N.ar    1  UNL1       -0.2324
@<TRIPOS>BOND
     1    22    23    1
     2    23    24   ar
     3    24    25   ar
     4    25    17    1
     5    17    18   ar
     6    18    19   ar
     7    19    16    1
     8    16     1    1
     9     1     2    1
    10     2     3   ar
    11     3     4   ar
    12     4     5   ar
    13     5     7    1
    14     7     8   ar
    15     8     9   ar
    16     9    10   ar
    17    10    11   ar
    18    11    12   ar
    19     5     6   ar
    20     6    13    1
    21    13    14    1
    22    14    15    1
    23    19    20   ar
    24    20    21   ar
    25    25    26   ar
    26    26    27   ar
    27    27    28   ar
    28    28    23   ar
    29    21    17   ar
    30     6     2   ar
    31    15    13    1
    32    12     7   ar
@<TRIPOS>MOLECULE
*****
 28 32 0 0 0
SMALL
GASTEIGER

@<TRIPOS>ATOM
      1 S          63.9774   89.9330   14.5411 S.3     1  UNL1       -0.0673
      2 C          64.9743   90.9446   14.0589 C.ar    1  UNL1        0.1935
      3 N          66.1463   91.4671   14.8358 N.ar    1  UNL1       -0.1221
      4 N          66.8707   92.4568   13.9722 N.ar    1  UNL1       -0.1282
      5 C          66.1465   92.5459   12.6617 C.ar    1  UNL1        0.1668
      6 N          64.9745   91.6113   12.7152 N.ar    1  UNL1       -0.2923
      7 C          66.5275   93.4168   11.5013 C.ar    1  UNL1        0.0390
      8 C          67.2225   92.8212   10.3130 C.ar    1  UNL1        0.0237
      9 C          67.6035   93.6920    9.1526 C.ar    1  UNL1        0.0990
     10 N          67.2894   95.1585    9.1805 N.ar    1  UNL1       -0.2423
     11 C          66.5943   95.7541   10.3688 C.ar    1  UNL1        0.0990
     12 C          66.2133   94.8832   11.5292 C.ar    1  UNL1        0.0237
     13 C          63.9777   91.3835   11.6178 C.3     1  UNL1        0.0889
     14 C          62.6675   90.8239   11.1484 C.3     1  UNL1        0.0246
     15 C          63.5613   91.5486   10.1862 C.3     1  UNL1        0.0246
     16 C          64.3993   88.5107   14.7629 C.3     1  UNL1        0.1340
     17 C          63.1620   85.2291   13.1000 C.ar    1  UNL1        0.2598
     18 N          63.8229   85.9547   14.2343 N.ar    1  UNL1       -0.1902
     19 C          63.8336   87.4180   13.9050 C.ar    1  UNL1        0.1921
     20 N          63.1794   87.5969   12.5670 N.ar    1  UNL1       -0.0593
     21 O          62.7643   86.2441   12.0695 O.2     1  UNL1       -0.3327
     22 CL         63.1656   80.8352   10.3262 Cl      1  UNL1       -0.0613
     23 C          62.9399   81.5516   11.6246 C.ar    1  UNL1        0.1385
     24 C          63.1638   83.0321   11.7131 C.ar    1  UNL1        0.0355
     25 C          62.9381   83.7485   13.0115 C.ar    1  UNL1        0.0600
     26 C          62.4886   82.9844   14.2214 C.ar    1  UNL1        0.0255
     27 C          62.2647   81.5038   14.1329 C.ar    1  UNL1        0.1000
     28 N          62.4904   80.7875   12.8345 N.ar    1  UNL1       -0.2324
@<TRIPOS>BOND
     1    22    23    1
     2    23    24   ar
     3    24    25   ar
     4    25    17    1
     5    17    18   ar
     6    18    19   ar
     7    19    16    1
     8    16     1    1
     9     1     2    1
    10     2     3   ar
    11     3     4   ar
    12     4     5   ar
    13     5     7    1
    14     7     8   ar
    15     8     9   ar
    16     9    10   ar
    17    10    11   ar
    18    11    12   ar
    19     5     6   ar
    20     6    13    1
    21    13    14    1
    22    14    15    1
    23    19    20   ar
    24    20    21   ar
    25    25    26   ar
    26    26    27   ar
    27    27    28   ar
    28    28    23   ar
    29    21    17   ar
    30     6     2   ar
    31    15    13    1
    32    12     7   ar
@<TRIPOS>MOLECULE
*****
 28 32 0 0 0
SMALL
GASTEIGER

@<TRIPOS>ATOM
      1 S          62.1598   90.0377   11.5363 S.3     1  UNL1       -0.0673
      2 C          63.3800   90.8701   11.7966 C.ar    1  UNL1        0.1935
      3 N          63.9622   91.8954   10.8692 N.ar    1  UNL1       -0.1221
      4 N          65.1745   92.4825   11.5295 N.ar    1  UNL1       -0.1282
      5 C          65.3414   91.8200   12.8649 C.ar    1  UNL1        0.1668
      6 N          64.2325   90.8235   13.0300 N.ar    1  UNL1       -0.2923
      7 C          66.4270   92.1041   13.8604 C.ar    1  UNL1        0.0390
      8 C          66.0743   92.5689   15.2423 C.ar    1  UNL1        0.0237
      9 C          67.1597   92.8530   16.2378 C.ar    1  UNL1        0.0990
     10 N          68.5979   92.6724   15.8514 N.ar    1  UNL1       -0.2423
     11 C          68.9505   92.2077   14.4695 C.ar    1  UNL1        0.0990
     12 C          67.8650   91.9235   13.4740 C.ar    1  UNL1        0.0237
     13 C          64.0143   89.9363   14.2195 C.3     1  UNL1        0.0889
     14 C          64.1931   88.6135   14.9038 C.3     1  UNL1        0.0246
     15 C          63.4576   89.7225   15.5959 C.3     1  UNL1        0.0246
     16 C          62.1552   89.0444   10.4123 C.3     1  UNL1        0.1340
     17 C          62.4639   85.4403   11.8197 C.ar    1  UNL1        0.2598
     18 N          62.6971   86.9173   11.9379 N.ar    1  UNL1       -0.1902
     19 C          62.1384   87.5744   10.7106 C.ar    1  UNL1        0.1921
     20 N          61.5599   86.5034    9.8340 N.ar    1  UNL1       -0.0593
     21 O          61.7611   85.1845   10.5195 O.2     1  UNL1       -0.3327
     22 CL         62.7352   80.4610   13.2804 Cl      1  UNL1       -0.0613
     23 C          62.9990   81.9118   13.5556 C.ar    1  UNL1        0.1385
     24 C          62.5995   82.9506   12.5501 C.ar    1  UNL1        0.0355
     25 C          62.8634   84.4014   12.8253 C.ar    1  UNL1        0.0600
     26 C          63.5267   84.8132   14.1061 C.ar    1  UNL1        0.0255
     27 C          63.9262   83.7743   15.1116 C.ar    1  UNL1        0.1000
     28 N          63.6623   82.3236   14.8364 N.ar    1  UNL1       -0.2324
@<TRIPOS>BOND
     1    22    23    1
     2    23    24   ar
     3    24    25   ar
     4    25    17    1
     5    17    18   ar
     6    18    19   ar
     7    19    16    1
     8    16     1    1
     9     1     2    1
    10     2     3   ar
    11     3     4   ar
    12     4     5   ar
    13     5     7    1
    14     7     8   ar
    15     8     9   ar
    16     9    10   ar
    17    10    11   ar
    18    11    12   ar
    19     5     6   ar
    20     6    13    1
    21    13    14    1
    22    14    15    1
    23    19    20   ar
    24    20    21   ar
    25    25    26   ar
    26    26    27   ar
    27    27    28   ar
    28    28    23   ar
    29    21    17   ar
    30     6     2   ar
    31    15    13    1
    32    12     7   ar
@<TRIPOS>MOLECULE
*****
 28 32 0 0 0
SMALL
GASTEIGER

@<TRIPOS>ATOM
      1 S          63.7232   90.1345   14.1213 S.3     1  UNL1       -0.0673
      2 C          64.0321   90.9035   12.8712 C.ar    1  UNL1        0.1935
      3 N          63.1967   90.9339   11.6257 N.ar    1  UNL1       -0.1221
      4 N          63.8790   91.8264   10.6316 N.ar    1  UNL1       -0.1282
      5 C          65.1359   92.3477   11.2629 C.ar    1  UNL1        0.1668
      6 N          65.2305   91.7773   12.6470 N.ar    1  UNL1       -0.2923
      7 C          66.1246   93.2763   10.6224 C.ar    1  UNL1        0.0390
      8 C          67.2822   92.7205    9.8472 C.ar    1  UNL1        0.0237
      9 C          68.2709   93.6491    9.2067 C.ar    1  UNL1        0.0990
     10 N          68.1020   95.1335    9.3414 N.ar    1  UNL1       -0.2423
     11 C          66.9443   95.6893   10.1166 C.ar    1  UNL1        0.0990
     12 C          65.9556   94.7606   10.7571 C.ar    1  UNL1        0.0237
     13 C          66.3305   92.0354   13.6336 C.3     1  UNL1        0.0889
     14 C          67.7697   91.9096   14.0369 C.3     1  UNL1        0.0246
     15 C          66.7964   92.6085   14.9392 C.3     1  UNL1        0.0246
     16 C          64.1299   88.6953   14.2364 C.3     1  UNL1        0.1340
     17 C          62.4481   86.6571   11.3934 C.ar    1  UNL1        0.2598
     18 N          62.8563   87.9657   12.0024 N.ar    1  UNL1       -0.1902
     19 C          63.5554   87.6762   13.2975 C.ar    1  UNL1        0.1921
     20 N          63.5794   86.1886   13.4889 N.ar    1  UNL1       -0.0593
     21 O          62.8950   85.5588   12.3121 O.2     1  UNL1       -0.3327
     22 CL         62.2261   84.6704    6.5972 Cl      1  UNL1       -0.0613
     23 C          61.6097   85.4848    7.6957 C.ar    1  UNL1        0.1385
     24 C          62.3370   85.6638    8.9952 C.ar    1  UNL1        0.0355
     25 C          61.7206   86.4782   10.0938 C.ar    1  UNL1        0.0600
     26 C          60.3769   87.1137    9.8927 C.ar    1  UNL1        0.0255
     27 C          59.6496   86.9347    8.5932 C.ar    1  UNL1        0.1000
     28 N          60.2660   86.1203    7.4947 N.ar    1  UNL1       -0.2324
@<TRIPOS>BOND
     1    22    23    1
     2    23    24   ar
     3    24    25   ar
     4    25    17    1
     5    17    18   ar
     6    18    19   ar
     7    19    16    1
     8    16     1    1
     9     1     2    1
    10     2     3   ar
    11     3     4   ar
    12     4     5   ar
    13     5     7    1
    14     7     8   ar
    15     8     9   ar
    16     9    10   ar
    17    10    11   ar
    18    11    12   ar
    19     5     6   ar
    20     6    13    1
    21    13    14    1
    22    14    15    1
    23    19    20   ar
    24    20    21   ar
    25    25    26   ar
    26    26    27   ar
    27    27    28   ar
    28    28    23   ar
    29    21    17   ar
    30     6     2   ar
    31    15    13    1
    32    12     7   ar
@<TRIPOS>MOLECULE
*****
 28 32 0 0 0
SMALL
GASTEIGER

@<TRIPOS>ATOM
      1 S          62.0987   90.1275   11.8929 S.3     1  UNL1       -0.0673
      2 C          63.1072   90.2869   12.9916 C.ar    1  UNL1        0.1935
      3 N          63.0742   89.6006   14.3251 N.ar    1  UNL1       -0.1221
      4 N          64.2725   90.0501   15.1076 N.ar    1  UNL1       -0.1282
      5 C          65.0459   91.0142   14.2577 C.ar    1  UNL1        0.1668
      6 N          64.3258   91.1605   12.9500 N.ar    1  UNL1       -0.2923
      7 C          66.3166   91.7098   14.6472 C.ar    1  UNL1        0.0390
      8 C          67.5562   91.5242   13.8232 C.ar    1  UNL1        0.0237
      9 C          68.8268   92.2198   14.2127 C.ar    1  UNL1        0.0990
     10 N          68.8578   93.1011   15.4262 N.ar    1  UNL1       -0.2423
     11 C          67.6182   93.2867   16.2502 C.ar    1  UNL1        0.0990
     12 C          66.3476   92.5910   15.8607 C.ar    1  UNL1        0.0237
     13 C          64.7499   92.0282   11.8023 C.3     1  UNL1        0.0889
     14 C          65.5077   93.2126   11.2799 C.3     1  UNL1        0.0246
     15 C          64.7265   92.3466   10.3367 C.3     1  UNL1        0.0246
     16 C          62.3739   89.1934   10.7519 C.3     1  UNL1        0.1340
     17 C          62.3796   85.4616   11.8189 C.ar    1  UNL1        0.2598
     18 N          62.8195   86.8818   12.0179 N.ar    1  UNL1       -0.1902
     19 C          62.2007   87.7147   10.9347 C.ar    1  UNL1        0.1921
     20 N          61.3784   86.8093   10.0662 N.ar    1  UNL1       -0.0593
     21 O          61.4890   85.4168   10.6128 O.2     1  UNL1       -0.3327
     22 CL         62.7020   80.3257   12.5395 Cl      1  UNL1       -0.0613
     23 C          62.9242   81.7236   13.0360 C.ar    1  UNL1        0.1385
     24 C          62.5408   82.8936   12.1793 C.ar    1  UNL1        0.0355
     25 C          62.7630   84.2915   12.6758 C.ar    1  UNL1        0.0600
     26 C          63.3686   84.5194   14.0290 C.ar    1  UNL1        0.0255
     27 C          63.7520   83.3494   14.8857 C.ar    1  UNL1        0.1000
     28 N          63.5298   81.9515   14.3892 N.ar    1  UNL1       -0.2324
@<TRIPOS>BOND
     1    22    23    1
     2    23    24   ar
     3    24    25   ar
     4    25    17    1
     5    17    18   ar
     6    18    19   ar
     7    19    16    1
     8    16     1    1
     9     1     2    1
    10     2     3   ar
    11     3     4   ar
    12     4     5   ar
    13     5     7    1
    14     7     8   ar
    15     8     9   ar
    16     9    10   ar
    17    10    11   ar
    18    11    12   ar
    19     5     6   ar
    20     6    13    1
    21    13    14    1
    22    14    15    1
    23    19    20   ar
    24    20    21   ar
    25    25    26   ar
    26    26    27   ar
    27    27    28   ar
    28    28    23   ar
    29    21    17   ar
    30     6     2   ar
    31    15    13    1
    32    12     7   ar
@<TRIPOS>MOLECULE
*****
 28 32 0 0 0
SMALL
GASTEIGER

@<TRIPOS>ATOM
      1 S          63.8654   88.3777   13.6328 S.3     1  UNL1       -0.0673
      2 C          63.9036   86.9391   14.0555 C.ar    1  UNL1        0.1935
      3 N          64.5285   86.4051   15.3103 N.ar    1  UNL1       -0.1221
      4 N          64.3347   84.9177   15.3280 N.ar    1  UNL1       -0.1282
      5 C          63.5900   84.5325   14.0842 C.ar    1  UNL1        0.1668
      6 N          63.3236   85.7817   13.2978 N.ar    1  UNL1       -0.2923
      7 C          63.1832   83.1421   13.6952 C.ar    1  UNL1        0.0390
      8 C          62.1281   82.4218   14.4812 C.ar    1  UNL1        0.0237
      9 C          61.7213   81.0314   14.0923 C.ar    1  UNL1        0.0990
     10 N          62.3696   80.3613   12.9172 N.ar    1  UNL1       -0.2423
     11 C          63.4248   81.0816   12.1312 C.ar    1  UNL1        0.0990
     12 C          63.8316   82.4720   12.5202 C.ar    1  UNL1        0.0237
     13 C          62.6035   85.8598   11.9843 C.3     1  UNL1        0.0889
     14 C          61.6240   86.5455   11.0785 C.3     1  UNL1        0.0246
     15 C          62.3358   85.3092   10.6149 C.3     1  UNL1        0.0246
     16 C          64.0396   89.4639   14.6524 C.3     1  UNL1        0.1340
     17 C          65.8126   92.4846   12.9799 C.ar    1  UNL1        0.2598
     18 N          65.1947   91.1201   12.9009 N.ar    1  UNL1       -0.1902
     19 C          64.7196   90.7462   14.2736 C.ar    1  UNL1        0.1921
     20 N          65.0439   91.8796   15.2011 N.ar    1  UNL1       -0.0593
     21 O          65.7194   92.9540   14.4015 O.2     1  UNL1       -0.3327
     22 CL         68.6356   92.5646    8.6182 Cl      1  UNL1       -0.0613
     23 C          67.8291   93.2860    9.6570 C.ar    1  UNL1        0.1385
     24 C          67.2241   92.5246   10.7990 C.ar    1  UNL1        0.0355
     25 C          66.4176   93.2460   11.8378 C.ar    1  UNL1        0.0600
     26 C          66.2161   94.7288   11.7346 C.ar    1  UNL1        0.0255
     27 C          66.8210   95.4902   10.5925 C.ar    1  UNL1        0.1000
     28 N          67.6275   94.7688    9.5537 N.ar    1  UNL1       -0.2324
@<TRIPOS>BOND
     1    22    23    1
     2    23    24   ar
     3    24    25   ar
     4    25    17    1
     5    17    18   ar
     6    18    19   ar
     7    19    16    1
     8    16     1    1
     9     1     2    1
    10     2     3   ar
    11     3     4   ar
    12     4     5   ar
    13     5     7    1
    14     7     8   ar
    15     8     9   ar
    16     9    10   ar
    17    10    11   ar
    18    11    12   ar
    19     5     6   ar
    20     6    13    1
    21    13    14    1
    22    14    15    1
    23    19    20   ar
    24    20    21   ar
    25    25    26   ar
    26    26    27   ar
    27    27    28   ar
    28    28    23   ar
    29    21    17   ar
    30     6     2   ar
    31    15    13    1
    32    12     7   ar
@<TRIPOS>MOLECULE
*****
 28 32 0 0 0
SMALL
GASTEIGER

@<TRIPOS>ATOM
      1 S          63.8370   88.4920   13.7384 S.3     1  UNL1       -0.0673
      2 C          63.1191   88.5759   12.4241 C.ar    1  UNL1        0.1935
      3 N          62.7764   89.8358   11.6856 N.ar    1  UNL1       -0.1221
      4 N          62.0634   89.4532   10.4224 N.ar    1  UNL1       -0.1282
      5 C          61.9655   87.9570   10.3804 C.ar    1  UNL1        0.1668
      6 N          62.6180   87.4148   11.6174 N.ar    1  UNL1       -0.2923
      7 C          61.3271   87.1455    9.2922 C.ar    1  UNL1        0.0390
      8 C          59.8781   87.3450    8.9596 C.ar    1  UNL1        0.0237
      9 C          59.2398   86.5335    7.8715 C.ar    1  UNL1        0.0990
     10 N          60.0504   85.5225    7.1159 N.ar    1  UNL1       -0.2423
     11 C          61.4994   85.3231    7.4485 C.ar    1  UNL1        0.0990
     12 C          62.1378   86.1346    8.5367 C.ar    1  UNL1        0.0237
     13 C          62.7466   85.9659   11.9835 C.3     1  UNL1        0.0889
     14 C          63.0593   84.9047   12.9965 C.3     1  UNL1        0.0246
     15 C          62.6568   84.5174   11.6044 C.3     1  UNL1        0.0246
     16 C          63.8613   89.6777   14.6568 C.3     1  UNL1        0.1340
     17 C          65.8069   92.5754   12.9588 C.ar    1  UNL1        0.2598
     18 N          65.0968   91.2560   12.8883 N.ar    1  UNL1       -0.1902
     19 C          64.6202   90.9119   14.2683 C.ar    1  UNL1        0.1921
     20 N          65.0357   92.0186   15.1917 N.ar    1  UNL1       -0.0593
     21 O          65.7691   93.0467   14.3823 O.2     1  UNL1       -0.3327
     22 CL         68.7306   92.5013    8.6638 Cl      1  UNL1       -0.0613
     23 C          67.9049   93.2598    9.6603 C.ar    1  UNL1        0.1385
     24 C          67.2687   92.5384   10.8113 C.ar    1  UNL1        0.0355
     25 C          66.4431   93.2969   11.8077 C.ar    1  UNL1        0.0600
     26 C          66.2536   94.7768   11.6532 C.ar    1  UNL1        0.0255
     27 C          66.8897   95.4982   10.5022 C.ar    1  UNL1        0.1000
     28 N          67.7154   94.7397    9.5058 N.ar    1  UNL1       -0.2324
@<TRIPOS>BOND
     1    22    23    1
     2    23    24   ar
     3    24    25   ar
     4    25    17    1
     5    17    18   ar
     6    18    19   ar
     7    19    16    1
     8    16     1    1
     9     1     2    1
    10     2     3   ar
    11     3     4   ar
    12     4     5   ar
    13     5     7    1
    14     7     8   ar
    15     8     9   ar
    16     9    10   ar
    17    10    11   ar
    18    11    12   ar
    19     5     6   ar
    20     6    13    1
    21    13    14    1
    22    14    15    1
    23    19    20   ar
    24    20    21   ar
    25    25    26   ar
    26    26    27   ar
    27    27    28   ar
    28    28    23   ar
    29    21    17   ar
    30     6     2   ar
    31    15    13    1
    32    12     7   ar
@<TRIPOS>MOLECULE
*****
 28 32 0 0 0
SMALL
GASTEIGER

@<TRIPOS>ATOM
      1 S          64.1729   88.4946   14.1247 S.3     1  UNL1       -0.0673
      2 C          63.5018   87.5306   13.1920 C.ar    1  UNL1        0.1935
      3 N          63.4233   86.0430   13.3683 N.ar    1  UNL1       -0.1221
      4 N          62.6643   85.4777   12.2045 N.ar    1  UNL1       -0.1282
      5 C          62.2738   86.6159   11.3089 C.ar    1  UNL1        0.1668
      6 N          62.7914   87.8846   11.9192 N.ar    1  UNL1       -0.2923
      7 C          61.5013   86.5048   10.0279 C.ar    1  UNL1        0.0390
      8 C          62.0790   85.7512    8.8667 C.ar    1  UNL1        0.0237
      9 C          61.3066   85.6401    7.5857 C.ar    1  UNL1        0.0990
     10 N          59.9564   86.2826    7.4659 N.ar    1  UNL1       -0.2423
     11 C          59.3787   87.0361    8.6271 C.ar    1  UNL1        0.0990
     12 C          60.1512   87.1472    9.9081 C.ar    1  UNL1        0.0237
     13 C          62.6273   89.2649   11.3556 C.3     1  UNL1        0.0889
     14 C          61.8852   90.5675   11.3045 C.3     1  UNL1        0.0246
     15 C          63.0854   90.3533   10.4306 C.3     1  UNL1        0.0246
     16 C          63.6124   89.8738   14.3087 C.3     1  UNL1        0.1340
     17 C          65.7259   92.7127   12.7153 C.ar    1  UNL1        0.2598
     18 N          64.9351   91.4436   12.5967 N.ar    1  UNL1       -0.1902
     19 C          64.4445   91.0736   13.9650 C.ar    1  UNL1        0.1921
     20 N          64.9321   92.1140   14.9293 N.ar    1  UNL1       -0.0593
     21 O          65.7240   93.1270   14.1569 O.2     1  UNL1       -0.3327
     22 CL         68.6764   92.6403    8.4386 Cl      1  UNL1       -0.0613
     23 C          67.8755   93.4036    9.4515 C.ar    1  UNL1        0.1385
     24 C          67.2012   92.6765   10.5769 C.ar    1  UNL1        0.0355
     25 C          66.4002   93.4398   11.5898 C.ar    1  UNL1        0.0600
     26 C          66.2737   94.9302   11.4773 C.ar    1  UNL1        0.0255
     27 C          66.9480   95.6573   10.3518 C.ar    1  UNL1        0.1000
     28 N          67.7489   94.8940    9.3390 N.ar    1  UNL1       -0.2324
@<TRIPOS>BOND
     1    22    23    1
     2    23    24   ar
     3    24    25   ar
     4    25    17    1
     5    17    18   ar
     6    18    19   ar
     7    19    16    1
     8    16     1    1
     9     1     2    1
    10     2     3   ar
    11     3     4   ar
    12     4     5   ar
    13     5     7    1
    14     7     8   ar
    15     8     9   ar
    16     9    10   ar
    17    10    11   ar
    18    11    12   ar
    19     5     6   ar
    20     6    13    1
    21    13    14    1
    22    14    15    1
    23    19    20   ar
    24    20    21   ar
    25    25    26   ar
    26    26    27   ar
    27    27    28   ar
    28    28    23   ar
    29    21    17   ar
    30     6     2   ar
    31    15    13    1
    32    12     7   ar
