@<TRIPOS>MOLECULE
*****
 32 36 0 0 0
SMALL
GASTEIGER

@<TRIPOS>ATOM
      1 C          62.6889   89.6789   11.8571 C.3     1  UNL1        0.0983
      2 C          63.1062   89.3841   13.2673 C.3     1  UNL1        0.0280
      3 C          64.1043   90.2683   13.9544 C.3     1  UNL1        0.0452
      4 C          64.6849   91.4472   13.2313 C.ar    1  UNL1        0.0335
      5 C          65.6807   92.4890   13.6472 C.ar    1  UNL1       -0.0035
      6 C          65.8788   93.4276   12.4941 C.ar    1  UNL1        0.0133
      7 C          66.7416   94.6430   12.3260 C.ar    1  UNL1        0.0012
      8 C          66.7309   95.3968   11.0292 C.ar    1  UNL1        0.0001
      9 C          65.8575   94.9351    9.9005 C.ar    1  UNL1        0.0015
     10 C          64.9947   93.7197   10.0686 C.ar    1  UNL1        0.0172
     11 C          65.0053   92.9660   11.3654 C.ar    1  UNL1        0.0594
     12 N          64.2675   91.7420   11.8210 N.ar    1  UNL1       -0.3292
     13 C          63.2695   90.8578   11.1339 C.3     1  UNL1        0.1254
     14 C          60.3247   88.6058   11.7599 C.3     1  UNL1        0.1149
     15 N          61.6908   88.7946   11.1699 N.am    1  UNL1       -0.2772
     16 C          62.0590   88.0994    9.8927 C.2     1  UNL1        0.2286
     17 O          63.4251   88.2883    9.3027 O.2     1  UNL1       -0.2746
     18 C          61.0609   87.2152    9.2055 C.3     1  UNL1        0.0878
     19 C          60.2471   88.4201    8.8370 C.3     1  UNL1        0.0127
     20 C          59.2491   87.5359    8.1498 C.3     1  UNL1        0.0016
     21 C          60.0629   86.3310    8.5184 C.3     1  UNL1        0.0127
     22 C          61.8747   86.0103    9.5741 C.ar    1  UNL1       -0.0145
     23 C          61.8060   85.4560   10.9663 C.ar    1  UNL1       -0.0015
     24 C          62.6197   84.2511   11.3349 C.ar    1  UNL1        0.0293
     25 C          63.5023   83.6003   10.3112 C.ar    1  UNL1        0.1401
     26 F          64.3160   82.3953   10.6799 F       1  UNL1       -0.2042
     27 C          63.5710   84.1545    8.9191 C.ar    1  UNL1        0.0293
     28 C          62.7571   85.3595    8.5506 C.ar    1  UNL1       -0.0015
     29 C          66.3593   92.5768   14.9821 C.3     1  UNL1        0.0691
     30 C          67.8358   92.3346   15.0902 C.2     1  UNL1        0.0548
     31 O          68.4903   92.2812   16.4388 O.co2   1  UNL1       -0.5488
     32 O          68.6577   92.1458   13.8497 O.co2   1  UNL1       -0.5488
@<TRIPOS>UNITY_ATOM_ATTR
31 1
charge -1
@<TRIPOS>BOND
     1    14    15    1
     2    15    16   am
     3    16    17    2
     4    16    18    1
     5    18    22    1
     6    22    23   ar
     7    23    24   ar
     8    24    25   ar
     9    25    26    1
    10    25    27   ar
    11    27    28   ar
    12    18    19    1
    13    19    20    1
    14    20    21    1
    15     1    15    1
    16     1     2    1
    17     2     3    1
    18     3     4    1
    19     4     5   ar
    20     5    29    1
    21    29    30    1
    22    30    31   ar
    23    30    32   ar
    24     5     6   ar
    25     6     7   ar
    26     7     8   ar
    27     8     9   ar
    28     9    10   ar
    29    10    11   ar
    30    11    12   ar
    31    12    13    1
    32    21    18    1
    33    13     1    1
    34    28    22   ar
    35    12     4   ar
    36    11     6   ar
@<TRIPOS>MOLECULE
*****
 32 36 0 0 0
SMALL
GASTEIGER

@<TRIPOS>ATOM
      1 C          62.7636   90.3987   10.9265 C.3     1  UNL1        0.0983
      2 C          63.2187   91.3181    9.8323 C.3     1  UNL1        0.0280
      3 C          64.2679   92.3534   10.1105 C.3     1  UNL1        0.0452
      4 C          64.8620   92.4691   11.4830 C.ar    1  UNL1        0.0335
      5 C          65.9050   93.3852   12.0513 C.ar    1  UNL1       -0.0035
      6 C          66.0944   93.0319   13.4968 C.ar    1  UNL1        0.0133
      7 C          66.9904   93.5966   14.5590 C.ar    1  UNL1        0.0012
      8 C          66.9604   93.0269   15.9462 C.ar    1  UNL1        0.0001
      9 C          66.0345   91.8924   16.2712 C.ar    1  UNL1        0.0015
     10 C          65.1386   91.3277   15.2091 C.ar    1  UNL1        0.0172
     11 C          65.1685   91.8974   13.8218 C.ar    1  UNL1        0.0594
     12 N          64.4069   91.5496   12.5773 N.ar    1  UNL1       -0.3292
     13 C          63.3576   90.5144   12.2990 C.3     1  UNL1        0.1254
     14 C          60.3743   89.4553   11.3161 C.3     1  UNL1        0.1149
     15 N          61.7143   89.3634   10.6483 N.am    1  UNL1       -0.2772
     16 C          62.0052   88.2362    9.7023 C.2     1  UNL1        0.2286
     17 O          63.3452   88.1443    9.0345 O.2     1  UNL1       -0.2746
     18 C          60.9559   87.2009    9.4240 C.3     1  UNL1        0.0878
     19 C          60.1140   88.2377    8.7411 C.3     1  UNL1        0.0127
     20 C          59.0648   87.2024    8.4629 C.3     1  UNL1        0.0016
     21 C          59.9067   86.1657    9.1458 C.3     1  UNL1        0.0127
     22 C          61.7978   86.1642   10.1069 C.ar    1  UNL1       -0.0145
     23 C          61.7662   86.0378   11.6013 C.ar    1  UNL1       -0.0015
     24 C          62.6081   85.0010   12.2842 C.ar    1  UNL1        0.0293
     25 C          63.4816   84.0907   11.4727 C.ar    1  UNL1        0.1401
     26 F          64.3235   83.0539   12.1558 F       1  UNL1       -0.2042
     27 C          63.5132   84.2171    9.9785 C.ar    1  UNL1        0.0293
     28 C          62.6712   85.2539    9.2956 C.ar    1  UNL1       -0.0015
     29 C          66.6311   94.4650   11.3052 C.3     1  UNL1        0.0691
     30 C          67.3304   94.1465   10.0169 C.2     1  UNL1        0.0548
     31 O          66.8952   94.8090    8.7435 O.co2   1  UNL1       -0.5488
     32 O          68.4650   93.1654   10.0022 O.co2   1  UNL1       -0.5488
@<TRIPOS>UNITY_ATOM_ATTR
31 1
charge -1
@<TRIPOS>BOND
     1    14    15    1
     2    15    16   am
     3    16    17    2
     4    16    18    1
     5    18    22    1
     6    22    23   ar
     7    23    24   ar
     8    24    25   ar
     9    25    26    1
    10    25    27   ar
    11    27    28   ar
    12    18    19    1
    13    19    20    1
    14    20    21    1
    15     1    15    1
    16     1     2    1
    17     2     3    1
    18     3     4    1
    19     4     5   ar
    20     5    29    1
    21    29    30    1
    22    30    31   ar
    23    30    32   ar
    24     5     6   ar
    25     6     7   ar
    26     7     8   ar
    27     8     9   ar
    28     9    10   ar
    29    10    11   ar
    30    11    12   ar
    31    12    13    1
    32    21    18    1
    33    13     1    1
    34    28    22   ar
    35    12     4   ar
    36    11     6   ar
@<TRIPOS>MOLECULE
*****
 32 36 0 0 0
SMALL
GASTEIGER

@<TRIPOS>ATOM
      1 C          64.3567   89.8509   13.7631 C.3     1  UNL1        0.0983
      2 C          64.6122   88.5072   14.3788 C.3     1  UNL1        0.0280
      3 C          63.9887   87.2792   13.7847 C.3     1  UNL1        0.0452
      4 C          63.1096   87.3948   12.5747 C.ar    1  UNL1        0.0335
      5 C          62.3635   86.3688   11.7744 C.ar    1  UNL1       -0.0035
      6 C          61.6469   87.0783   10.6640 C.ar    1  UNL1        0.0133
      7 C          60.7575   86.5801    9.5637 C.ar    1  UNL1        0.0012
      8 C          60.1713   87.5464    8.5776 C.ar    1  UNL1        0.0001
      9 C          60.4745   89.0110    8.6916 C.ar    1  UNL1        0.0015
     10 C          61.3639   89.5092    9.7919 C.ar    1  UNL1        0.0172
     11 C          61.9502   88.5429   10.7780 C.ar    1  UNL1        0.0594
     12 N          62.8542   88.7385   11.9589 N.ar    1  UNL1       -0.3292
     13 C          63.4777   89.9666   12.5531 C.3     1  UNL1        0.1254
     14 C          64.3709   91.7178   15.5699 C.3     1  UNL1        0.1149
     15 N          64.9803   91.0791   14.3572 N.am    1  UNL1       -0.2772
     16 C          66.2132   91.6683   13.7385 C.2     1  UNL1        0.2286
     17 O          66.8225   91.0296   12.5258 O.2     1  UNL1       -0.2746
     18 C          66.8368   92.8965   14.3327 C.3     1  UNL1        0.0878
     19 C          67.2466   92.1048   15.5391 C.3     1  UNL1        0.0127
     20 C          67.8701   93.3329   16.1332 C.3     1  UNL1        0.0016
     21 C          67.4603   94.1246   14.9268 C.3     1  UNL1        0.0127
     22 C          66.4269   93.6881   13.1264 C.ar    1  UNL1       -0.0145
     23 C          65.8339   92.9911   11.9378 C.ar    1  UNL1       -0.0015
     24 C          65.4241   93.7828   10.7315 C.ar    1  UNL1        0.0293
     25 C          65.6072   95.2715   10.7136 C.ar    1  UNL1        0.1401
     26 F          65.1974   96.0631    9.5072 F       1  UNL1       -0.2042
     27 C          66.2002   95.9685   11.9021 C.ar    1  UNL1        0.0293
     28 C          66.6100   95.1767   13.1085 C.ar    1  UNL1       -0.0015
     29 C          62.3384   84.8924   12.0381 C.3     1  UNL1        0.0691
     30 C          63.5729   84.0696   11.8159 C.2     1  UNL1        0.0548
     31 O          64.5205   83.8176   12.9510 O.co2   1  UNL1       -0.5488
     32 O          63.8597   83.4991   10.4587 O.co2   1  UNL1       -0.5488
@<TRIPOS>UNITY_ATOM_ATTR
31 1
charge -1
@<TRIPOS>BOND
     1    14    15    1
     2    15    16   am
     3    16    17    2
     4    16    18    1
     5    18    22    1
     6    22    23   ar
     7    23    24   ar
     8    24    25   ar
     9    25    26    1
    10    25    27   ar
    11    27    28   ar
    12    18    19    1
    13    19    20    1
    14    20    21    1
    15     1    15    1
    16     1     2    1
    17     2     3    1
    18     3     4    1
    19     4     5   ar
    20     5    29    1
    21    29    30    1
    22    30    31   ar
    23    30    32   ar
    24     5     6   ar
    25     6     7   ar
    26     7     8   ar
    27     8     9   ar
    28     9    10   ar
    29    10    11   ar
    30    11    12   ar
    31    12    13    1
    32    21    18    1
    33    13     1    1
    34    28    22   ar
    35    12     4   ar
    36    11     6   ar
@<TRIPOS>MOLECULE
*****
 32 36 0 0 0
SMALL
GASTEIGER

@<TRIPOS>ATOM
      1 C          59.7812   94.1668   -1.3087 C.3     1  UNL1        0.0983
      2 C          59.9161   93.3073   -2.5306 C.3     1  UNL1        0.0280
      3 C          58.7804   93.2058   -3.5052 C.3     1  UNL1        0.0452
      4 C          57.5098   93.9639   -3.2579 C.ar    1  UNL1        0.0335
      5 C          56.2302   94.0588   -4.0349 C.ar    1  UNL1       -0.0035
      6 C          55.3046   94.9770   -3.2932 C.ar    1  UNL1        0.0133
      7 C          53.9089   95.4438   -3.5831 C.ar    1  UNL1        0.0012
      8 C          53.2208   96.3833   -2.6377 C.ar    1  UNL1        0.0001
      9 C          53.9283   96.8558   -1.4023 C.ar    1  UNL1        0.0015
     10 C          55.3240   96.3890   -1.1124 C.ar    1  UNL1        0.0172
     11 C          56.0121   95.4496   -2.0578 C.ar    1  UNL1        0.0594
     12 N          57.3750   94.8234   -2.0361 N.ar    1  UNL1       -0.3292
     13 C          58.5107   94.9249   -1.0615 C.3     1  UNL1        0.1254
     14 C          61.4778   95.6119    0.0268 C.3     1  UNL1        0.1149
     15 N          60.9170   94.2683   -0.3341 N.am    1  UNL1       -0.2772
     16 C          61.4918   93.0262    0.2796 C.2     1  UNL1        0.2286
     17 O          60.9310   91.6826   -0.0813 O.2     1  UNL1       -0.2746
     18 C          62.6276   93.1277    1.2543 C.3     1  UNL1        0.0878
     19 C          63.5319   93.5938    0.1520 C.3     1  UNL1        0.0127
     20 C          64.6675   93.6953    1.1267 C.3     1  UNL1        0.0016
     21 C          63.7632   93.2292    2.2289 C.3     1  UNL1        0.0127
     22 C          61.7233   92.6615    2.3565 C.ar    1  UNL1       -0.0145
     23 C          62.2029   91.6302    3.3345 C.ar    1  UNL1       -0.0015
     24 C          61.2986   91.1641    4.4367 C.ar    1  UNL1        0.0293
     25 C          59.9146   91.7292    4.5610 C.ar    1  UNL1        0.1401
     26 F          59.0103   91.2630    5.6633 F       1  UNL1       -0.2042
     27 C          59.4350   92.7604    3.5830 C.ar    1  UNL1        0.0293
     28 C          60.3394   93.2266    2.4808 C.ar    1  UNL1       -0.0015
     29 C          55.9291   93.3585   -5.3267 C.3     1  UNL1        0.0691
     30 C          56.1474   91.8792   -5.4465 C.2     1  UNL1        0.0548
     31 O          56.8220   91.3167   -6.6625 O.co2   1  UNL1       -0.5488
     32 O          55.6912   90.9625   -4.3504 O.co2   1  UNL1       -0.5488
@<TRIPOS>UNITY_ATOM_ATTR
31 1
charge -1
@<TRIPOS>BOND
     1    14    15    1
     2    15    16   am
     3    16    17    2
     4    16    18    1
     5    18    22    1
     6    22    23   ar
     7    23    24   ar
     8    24    25   ar
     9    25    26    1
    10    25    27   ar
    11    27    28   ar
    12    18    19    1
    13    19    20    1
    14    20    21    1
    15     1    15    1
    16     1     2    1
    17     2     3    1
    18     3     4    1
    19     4     5   ar
    20     5    29    1
    21    29    30    1
    22    30    31   ar
    23    30    32   ar
    24     5     6   ar
    25     6     7   ar
    26     7     8   ar
    27     8     9   ar
    28     9    10   ar
    29    10    11   ar
    30    11    12   ar
    31    12    13    1
    32    21    18    1
    33    13     1    1
    34    28    22   ar
    35    12     4   ar
    36    11     6   ar
@<TRIPOS>MOLECULE
*****
 32 36 0 0 0
SMALL
GASTEIGER

@<TRIPOS>ATOM
      1 C          59.8450   94.2215   -3.1518 C.3     1  UNL1        0.0983
      2 C          61.2714   94.3900   -3.5844 C.3     1  UNL1        0.0280
      3 C          62.3844   94.1538   -2.6071 C.3     1  UNL1        0.0452
      4 C          62.0712   93.7491   -1.1971 C.ar    1  UNL1        0.0335
      5 C          62.9511   93.4492   -0.0199 C.ar    1  UNL1       -0.0035
      6 C          62.0686   93.0953    1.1403 C.ar    1  UNL1        0.0133
      7 C          62.3788   92.7097    2.5563 C.ar    1  UNL1        0.0012
      8 C          61.2637   92.4052    3.5121 C.ar    1  UNL1        0.0001
      9 C          59.8383   92.4864    3.0519 C.ar    1  UNL1        0.0015
     10 C          59.5281   92.8721    1.6360 C.ar    1  UNL1        0.0172
     11 C          60.6433   93.1765    0.6802 C.ar    1  UNL1        0.0594
     12 N          60.6449   93.5805   -0.7644 N.ar    1  UNL1       -0.3292
     13 C          59.5318   93.8168   -1.7417 C.3     1  UNL1        0.1254
     14 C          58.5697   95.8041   -4.7701 C.3     1  UNL1        0.1149
     15 N          58.7319   94.4577   -4.1291 N.am    1  UNL1       -0.2772
     16 C          57.7809   93.3475   -4.4654 C.2     1  UNL1        0.2286
     17 O          57.9431   92.0011   -3.8244 O.2     1  UNL1       -0.2746
     18 C          56.6678   93.5837   -5.4427 C.3     1  UNL1        0.0878
     19 C          57.5023   92.9877   -6.5374 C.3     1  UNL1        0.0127
     20 C          56.3892   93.2239   -7.5147 C.3     1  UNL1        0.0016
     21 C          55.5546   93.8199   -6.4200 C.3     1  UNL1        0.0127
     22 C          55.8332   94.1797   -4.3481 C.ar    1  UNL1       -0.0145
     23 C          54.9564   95.3630   -4.6331 C.ar    1  UNL1       -0.0015
     24 C          54.1219   95.9590   -3.5385 C.ar    1  UNL1        0.0293
     25 C          54.1641   95.3718   -2.1587 C.ar    1  UNL1        0.1401
     26 F          53.3295   95.9679   -1.0641 F       1  UNL1       -0.2042
     27 C          55.0408   94.1886   -1.8738 C.ar    1  UNL1        0.0293
     28 C          55.8754   93.5926   -2.9685 C.ar    1  UNL1       -0.0015
     29 C          64.4504   93.4951   -0.0054 C.3     1  UNL1        0.0691
     30 C          65.1587   94.6943    0.5517 C.2     1  UNL1        0.0548
     31 O          65.1826   94.9303    2.0328 O.co2   1  UNL1       -0.5488
     32 O          65.8430   95.6575   -0.3724 O.co2   1  UNL1       -0.5488
@<TRIPOS>UNITY_ATOM_ATTR
31 1
charge -1
@<TRIPOS>BOND
     1    14    15    1
     2    15    16   am
     3    16    17    2
     4    16    18    1
     5    18    22    1
     6    22    23   ar
     7    23    24   ar
     8    24    25   ar
     9    25    26    1
    10    25    27   ar
    11    27    28   ar
    12    18    19    1
    13    19    20    1
    14    20    21    1
    15     1    15    1
    16     1     2    1
    17     2     3    1
    18     3     4    1
    19     4     5   ar
    20     5    29    1
    21    29    30    1
    22    30    31   ar
    23    30    32   ar
    24     5     6   ar
    25     6     7   ar
    26     7     8   ar
    27     8     9   ar
    28     9    10   ar
    29    10    11   ar
    30    11    12   ar
    31    12    13    1
    32    21    18    1
    33    13     1    1
    34    28    22   ar
    35    12     4   ar
    36    11     6   ar
@<TRIPOS>MOLECULE
*****
 32 36 0 0 0
SMALL
GASTEIGER

@<TRIPOS>ATOM
      1 C          63.8113   90.5061   12.2777 C.3     1  UNL1        0.0983
      2 C          64.1546   89.3053   13.1086 C.3     1  UNL1        0.0280
      3 C          63.5371   87.9749   12.7949 C.3     1  UNL1        0.0452
      4 C          62.5762   87.8451   11.6503 C.ar    1  UNL1        0.0335
      5 C          61.8156   86.6723   11.1063 C.ar    1  UNL1       -0.0035
      6 C          61.0022   87.1481    9.9393 C.ar    1  UNL1        0.0133
      7 C          60.0601   86.4352    9.0152 C.ar    1  UNL1        0.0012
      8 C          59.3758   87.1893    7.9138 C.ar    1  UNL1        0.0001
      9 C          59.6337   88.6563    7.7365 C.ar    1  UNL1        0.0015
     10 C          60.5759   89.3692    8.6606 C.ar    1  UNL1        0.0172
     11 C          61.2601   88.6151    9.7620 C.ar    1  UNL1        0.0594
     12 N          62.2329   89.0459   10.8195 N.ar    1  UNL1       -0.3292
     13 C          62.8504   90.3763   11.1332 C.3     1  UNL1        0.1254
     14 C          64.1744   92.4873   13.9188 C.3     1  UNL1        0.1149
     15 N          64.4288   91.8367   12.5914 N.am    1  UNL1       -0.2772
     16 C          65.3007   92.5164   11.5776 C.2     1  UNL1        0.2286
     17 O          65.5550   91.8658   10.2502 O.2     1  UNL1       -0.2746
     18 C          65.9182   93.8470   11.8913 C.3     1  UNL1        0.0878
     19 C          65.2105   94.4527   10.7156 C.3     1  UNL1        0.0127
     20 C          65.8280   95.7832   11.0293 C.3     1  UNL1        0.0016
     21 C          66.5357   95.1775   12.2050 C.3     1  UNL1        0.0127
     22 C          66.6260   93.2413   13.0670 C.ar    1  UNL1       -0.0145
     23 C          67.3451   91.9335   12.9172 C.ar    1  UNL1       -0.0015
     24 C          68.0529   91.3278   14.0928 C.ar    1  UNL1        0.0293
     25 C          68.0415   92.0300   15.4184 C.ar    1  UNL1        0.1401
     26 F          68.7493   91.4242   16.5940 F       1  UNL1       -0.2042
     27 C          67.3223   93.3377   15.5682 C.ar    1  UNL1        0.0293
     28 C          66.6146   93.9434   14.3924 C.ar    1  UNL1       -0.0015
     29 C          61.8605   85.2697   11.6363 C.3     1  UNL1        0.0691
     30 C          63.1438   84.4940   11.5975 C.2     1  UNL1        0.0548
     31 O          63.9833   84.3706   12.8344 O.co2   1  UNL1       -0.5488
     32 O          63.5876   83.8417   10.3217 O.co2   1  UNL1       -0.5488
@<TRIPOS>UNITY_ATOM_ATTR
31 1
charge -1
@<TRIPOS>BOND
     1    14    15    1
     2    15    16   am
     3    16    17    2
     4    16    18    1
     5    18    22    1
     6    22    23   ar
     7    23    24   ar
     8    24    25   ar
     9    25    26    1
    10    25    27   ar
    11    27    28   ar
    12    18    19    1
    13    19    20    1
    14    20    21    1
    15     1    15    1
    16     1     2    1
    17     2     3    1
    18     3     4    1
    19     4     5   ar
    20     5    29    1
    21    29    30    1
    22    30    31   ar
    23    30    32   ar
    24     5     6   ar
    25     6     7   ar
    26     7     8   ar
    27     8     9   ar
    28     9    10   ar
    29    10    11   ar
    30    11    12   ar
    31    12    13    1
    32    21    18    1
    33    13     1    1
    34    28    22   ar
    35    12     4   ar
    36    11     6   ar
@<TRIPOS>MOLECULE
*****
 32 36 0 0 0
SMALL
GASTEIGER

@<TRIPOS>ATOM
      1 C          59.1264   93.8502   -1.0018 C.3     1  UNL1        0.0983
      2 C          58.2739   94.8914   -0.3390 C.3     1  UNL1        0.0280
      3 C          57.1125   95.4899   -1.0757 C.3     1  UNL1        0.0452
      4 C          56.8034   95.0473   -2.4752 C.ar    1  UNL1        0.0335
      5 C          55.7326   95.4546   -3.4434 C.ar    1  UNL1       -0.0035
      6 C          55.9231   94.6651   -4.7045 C.ar    1  UNL1        0.0133
      7 C          55.1679   94.6458   -6.0003 C.ar    1  UNL1        0.0012
      8 C          55.6013   93.7313   -7.1074 C.ar    1  UNL1        0.0001
      9 C          56.7900   92.8360   -6.9187 C.ar    1  UNL1        0.0015
     10 C          57.5453   92.8554   -5.6229 C.ar    1  UNL1        0.0172
     11 C          57.1118   93.7699   -4.5158 C.ar    1  UNL1        0.0594
     12 N          57.6558   94.0061   -3.1380 N.ar    1  UNL1       -0.3292
     13 C          58.8173   93.4076   -2.4013 C.3     1  UNL1        0.1254
     14 C          60.5445   91.7758   -0.3417 C.3     1  UNL1        0.1149
     15 N          60.2879   93.2517   -0.2651 N.am    1  UNL1       -0.2772
     16 C          61.1927   94.1292    0.5481 C.2     1  UNL1        0.2286
     17 O          60.9361   95.6050    0.6247 O.2     1  UNL1       -0.2746
     18 C          62.3543   93.5306    1.2848 C.3     1  UNL1        0.0878
     19 C          61.4057   92.7603    2.1547 C.3     1  UNL1        0.0127
     20 C          62.5672   92.1618    2.8914 C.3     1  UNL1        0.0016
     21 C          63.5158   92.9321    2.0215 C.3     1  UNL1        0.0127
     22 C          63.3029   94.3009    0.4149 C.ar    1  UNL1       -0.0145
     23 C          64.2056   95.3343    1.0211 C.ar    1  UNL1       -0.0015
     24 C          65.1542   96.1046    0.1512 C.ar    1  UNL1        0.0293
     25 C          65.2002   95.8415   -1.3249 C.ar    1  UNL1        0.1401
     26 F          66.1488   96.6119   -2.1948 F       1  UNL1       -0.2042
     27 C          64.2976   94.8082   -1.9310 C.ar    1  UNL1        0.0293
     28 C          63.3489   94.0379   -1.0610 C.ar    1  UNL1       -0.0015
     29 C          54.6595   96.4726   -3.1942 C.3     1  UNL1        0.0691
     30 C          53.5216   96.1522   -2.2706 C.2     1  UNL1        0.0548
     31 O          53.7338   96.1669   -0.7858 O.co2   1  UNL1       -0.5488
     32 O          52.1715   95.8172   -2.8320 O.co2   1  UNL1       -0.5488
@<TRIPOS>UNITY_ATOM_ATTR
31 1
charge -1
@<TRIPOS>BOND
     1    14    15    1
     2    15    16   am
     3    16    17    2
     4    16    18    1
     5    18    22    1
     6    22    23   ar
     7    23    24   ar
     8    24    25   ar
     9    25    26    1
    10    25    27   ar
    11    27    28   ar
    12    18    19    1
    13    19    20    1
    14    20    21    1
    15     1    15    1
    16     1     2    1
    17     2     3    1
    18     3     4    1
    19     4     5   ar
    20     5    29    1
    21    29    30    1
    22    30    31   ar
    23    30    32   ar
    24     5     6   ar
    25     6     7   ar
    26     7     8   ar
    27     8     9   ar
    28     9    10   ar
    29    10    11   ar
    30    11    12   ar
    31    12    13    1
    32    21    18    1
    33    13     1    1
    34    28    22   ar
    35    12     4   ar
    36    11     6   ar
@<TRIPOS>MOLECULE
*****
 32 36 0 0 0
SMALL
GASTEIGER

@<TRIPOS>ATOM
      1 C          60.0843   95.1347   -1.0981 C.3     1  UNL1        0.0983
      2 C          58.8129   95.4844   -0.3830 C.3     1  UNL1        0.0280
      3 C          57.5212   95.5576   -1.1420 C.3     1  UNL1        0.0452
      4 C          57.5009   95.2811   -2.6162 C.ar    1  UNL1        0.0335
      5 C          56.3876   95.2775   -3.6215 C.ar    1  UNL1       -0.0035
      6 C          56.9709   94.9256   -4.9579 C.ar    1  UNL1        0.0133
      7 C          56.3504   94.7723   -6.3149 C.ar    1  UNL1        0.0012
      8 C          57.2038   94.4051   -7.4925 C.ar    1  UNL1        0.0001
      9 C          58.6776   94.1911   -7.3132 C.ar    1  UNL1        0.0015
     10 C          59.2980   94.3444   -5.9562 C.ar    1  UNL1        0.0172
     11 C          58.4447   94.7116   -4.7785 C.ar    1  UNL1        0.0594
     12 N          58.7722   94.9314   -3.3313 N.ar    1  UNL1       -0.3292
     13 C          60.0639   94.8582   -2.5723 C.3     1  UNL1        0.1254
     14 C          61.9953   96.3126    0.2099 C.3     1  UNL1        0.1149
     15 N          61.3760   95.0615   -0.3390 N.am    1  UNL1       -0.2772
     16 C          62.0484   93.7372   -0.1290 C.2     1  UNL1        0.2286
     17 O          61.4291   92.4861   -0.6779 O.2     1  UNL1       -0.2746
     18 C          63.3401   93.6640    0.6301 C.3     1  UNL1        0.0878
     19 C          64.0426   94.3593   -0.4982 C.3     1  UNL1        0.0127
     20 C          65.3343   94.2861    0.2608 C.3     1  UNL1        0.0016
     21 C          64.6318   93.5907    1.3891 C.3     1  UNL1        0.0127
     22 C          62.6377   92.9686    1.7583 C.ar    1  UNL1       -0.0145
     23 C          61.2509   93.3858    2.1492 C.ar    1  UNL1       -0.0015
     24 C          60.5485   92.6905    3.2775 C.ar    1  UNL1        0.0293
     25 C          61.2328   91.5778    4.0149 C.ar    1  UNL1        0.1401
     26 F          60.5303   90.8824    5.1432 F       1  UNL1       -0.2042
     27 C          62.6195   91.1606    3.6241 C.ar    1  UNL1        0.0293
     28 C          63.3220   91.8560    2.4957 C.ar    1  UNL1       -0.0015
     29 C          54.9444   95.5738   -3.3398 C.3     1  UNL1        0.0691
     30 C          54.2617   94.9321   -2.1683 C.2     1  UNL1        0.0548
     31 O          54.7412   93.6069   -1.6544 O.co2   1  UNL1       -0.5488
     32 O          53.0996   95.6156   -1.5108 O.co2   1  UNL1       -0.5488
@<TRIPOS>UNITY_ATOM_ATTR
31 1
charge -1
@<TRIPOS>BOND
     1    14    15    1
     2    15    16   am
     3    16    17    2
     4    16    18    1
     5    18    22    1
     6    22    23   ar
     7    23    24   ar
     8    24    25   ar
     9    25    26    1
    10    25    27   ar
    11    27    28   ar
    12    18    19    1
    13    19    20    1
    14    20    21    1
    15     1    15    1
    16     1     2    1
    17     2     3    1
    18     3     4    1
    19     4     5   ar
    20     5    29    1
    21    29    30    1
    22    30    31   ar
    23    30    32   ar
    24     5     6   ar
    25     6     7   ar
    26     7     8   ar
    27     8     9   ar
    28     9    10   ar
    29    10    11   ar
    30    11    12   ar
    31    12    13    1
    32    21    18    1
    33    13     1    1
    34    28    22   ar
    35    12     4   ar
    36    11     6   ar
@<TRIPOS>MOLECULE
*****
 32 36 0 0 0
SMALL
GASTEIGER

@<TRIPOS>ATOM
      1 C          59.1092   94.5160   -0.9591 C.3     1  UNL1        0.0983
      2 C          60.5087   94.6391   -1.4845 C.3     1  UNL1        0.0280
      3 C          61.6596   94.1035   -0.6854 C.3     1  UNL1        0.0452
      4 C          61.4109   93.4448    0.6391 C.ar    1  UNL1        0.0335
      5 C          62.3387   92.8270    1.6429 C.ar    1  UNL1       -0.0035
      6 C          61.5126   92.3221    2.7886 C.ar    1  UNL1        0.0133
      7 C          61.8843   91.6235    4.0628 C.ar    1  UNL1        0.0012
      8 C          60.8176   91.2306    5.0414 C.ar    1  UNL1        0.0001
      9 C          59.3791   91.5364    4.7458 C.ar    1  UNL1        0.0015
     10 C          59.0074   92.2350    3.4715 C.ar    1  UNL1        0.0172
     11 C          60.0741   92.6279    2.4929 C.ar    1  UNL1        0.0594
     12 N          60.0113   93.3217    1.1645 N.ar    1  UNL1       -0.3292
     13 C          58.8604   93.8573    0.3654 C.3     1  UNL1        0.1254
     14 C          58.1029   96.3417   -2.5097 C.3     1  UNL1        0.1149
     15 N          57.9582   95.0517   -1.7582 N.am    1  UNL1       -0.2772
     16 C          56.6627   94.2971   -1.8057 C.2     1  UNL1        0.2286
     17 O          56.5180   93.0070   -1.0542 O.2     1  UNL1       -0.2746
     18 C          55.5117   94.8328   -2.6049 C.3     1  UNL1        0.0878
     19 C          55.0128   95.5658   -1.3950 C.3     1  UNL1        0.0127
     20 C          53.8619   96.1014   -2.1942 C.3     1  UNL1        0.0016
     21 C          54.3609   95.3684   -3.4040 C.3     1  UNL1        0.0127
     22 C          56.0106   94.0997   -3.8147 C.ar    1  UNL1       -0.0145
     23 C          56.3748   92.6480   -3.7148 C.ar    1  UNL1       -0.0015
     24 C          56.8737   91.9150   -4.9246 C.ar    1  UNL1        0.0293
     25 C          57.0085   92.6336   -6.2344 C.ar    1  UNL1        0.1401
     26 F          57.5074   91.9005   -7.4443 F       1  UNL1       -0.2042
     27 C          56.6443   94.0852   -6.3343 C.ar    1  UNL1        0.0293
     28 C          56.1454   94.8183   -5.1244 C.ar    1  UNL1       -0.0015
     29 C          63.8307   92.7309    1.5221 C.3     1  UNL1        0.0691
     30 C          64.6519   93.9759    1.3608 C.2     1  UNL1        0.0548
     31 O          65.3106   94.2749    0.0468 O.co2   1  UNL1       -0.5488
     32 O          64.8142   94.9218    2.5136 O.co2   1  UNL1       -0.5488
@<TRIPOS>UNITY_ATOM_ATTR
31 1
charge -1
@<TRIPOS>BOND
     1    14    15    1
     2    15    16   am
     3    16    17    2
     4    16    18    1
     5    18    22    1
     6    22    23   ar
     7    23    24   ar
     8    24    25   ar
     9    25    26    1
    10    25    27   ar
    11    27    28   ar
    12    18    19    1
    13    19    20    1
    14    20    21    1
    15     1    15    1
    16     1     2    1
    17     2     3    1
    18     3     4    1
    19     4     5   ar
    20     5    29    1
    21    29    30    1
    22    30    31   ar
    23    30    32   ar
    24     5     6   ar
    25     6     7   ar
    26     7     8   ar
    27     8     9   ar
    28     9    10   ar
    29    10    11   ar
    30    11    12   ar
    31    12    13    1
    32    21    18    1
    33    13     1    1
    34    28    22   ar
    35    12     4   ar
    36    11     6   ar
