@<TRIPOS>MOLECULE
*****
 24 26 0 0 0
SMALL
GASTEIGER

@<TRIPOS>ATOM
      1 N          61.4435   89.8015   12.6724 N.pl3   1  UNL1       -0.2150
      2 H          60.6254   90.0868   13.1398 H       1  UNL1        0.1737
      3 C          62.7793   90.3235   13.1122 C.ar    1  UNL1        0.0648
      4 C          63.5926   91.1781   12.1858 C.ar    1  UNL1        0.0160
      5 C          64.9283   91.7000   12.6255 C.ar    1  UNL1        0.0043
      6 C          65.4507   91.3674   13.9917 C.ar    1  UNL1        0.0346
      7 C          64.6374   90.5128   14.9181 C.ar    1  UNL1        0.0043
      8 C          63.3017   89.9909   14.4783 C.ar    1  UNL1        0.0160
      9 C          66.7865   91.8894   14.4314 C.ar    1  UNL1        0.1454
     10 C          67.1160   92.4363   15.7888 C.ar    1  UNL1        0.0407
     11 C          68.5604   92.8410   15.7873 C.ar    1  UNL1        0.0438
     12 C          69.1235   92.5443   14.4290 C.ar    1  UNL1        0.1796
     13 O          68.0272   91.9561   13.5911 O.2     1  UNL1       -0.4504
     14 O          60.2779   89.6879   10.9037 O.2     1  UNL1       -0.1499
     15 S          61.3543   88.8449   11.5206 S.O2    1  UNL1        0.0736
     16 O          62.4308   88.0018   12.1374 O.2     1  UNL1       -0.1499
     17 C          61.2652   87.8882   10.3687 C.ar    1  UNL1        0.1268
     18 C          62.3489   86.8744   10.1501 C.ar    1  UNL1        0.0316
     19 C          62.2598   85.9177    8.9983 C.ar    1  UNL1        0.0599
     20 CL         63.3435   84.9039    8.7798 Cl      1  UNL1       -0.0822
     21 C          61.0869   85.9748    8.0650 C.ar    1  UNL1        0.0229
     22 C          60.0032   86.9886    8.2835 C.ar    1  UNL1        0.0599
     23 CL         58.8303   87.0456    7.3502 Cl      1  UNL1       -0.0822
     24 C          60.0923   87.9453    9.4354 C.ar    1  UNL1        0.0316
@<TRIPOS>BOND
     1    14    15    2
     2    15    16    2
     3    15     1    1
     4     1     3    1
     5     3     4   ar
     6     4     5   ar
     7     5     6   ar
     8     6     9    1
     9     9    10   ar
    10    10    11   ar
    11    11    12   ar
    12    12    13   ar
    13     6     7   ar
    14     7     8   ar
    15    15    17    1
    16    17    18   ar
    17    18    19   ar
    18    19    20    1
    19    19    21   ar
    20    21    22   ar
    21    22    23    1
    22    22    24   ar
    23     8     3   ar
    24    24    17   ar
    25    13     9   ar
    26     1     2    1
@<TRIPOS>MOLECULE
*****
 24 26 0 0 0
SMALL
GASTEIGER

@<TRIPOS>ATOM
      1 N          61.4589   89.7928   12.6612 N.pl3   1  UNL1       -0.2150
      2 H          60.6464   90.0630   13.1472 H       1  UNL1        0.1737
      3 C          62.7984   90.3127   13.0920 C.ar    1  UNL1        0.0648
      4 C          63.6067   91.1662   12.1603 C.ar    1  UNL1        0.0160
      5 C          64.9461   91.6861   12.5912 C.ar    1  UNL1        0.0043
      6 C          65.4771   91.3525   13.9538 C.ar    1  UNL1        0.0346
      7 C          64.6688   90.4990   14.8855 C.ar    1  UNL1        0.0043
      8 C          63.3294   89.9792   14.4546 C.ar    1  UNL1        0.0160
      9 C          66.8166   91.8725   14.3846 C.ar    1  UNL1        0.1454
     10 C          67.1597   92.4059   15.7440 C.ar    1  UNL1        0.0407
     11 C          68.6032   92.8133   15.7313 C.ar    1  UNL1        0.0438
     12 C          69.1523   92.5318   14.3640 C.ar    1  UNL1        0.1796
     13 O          68.0481   91.9503   13.5318 O.2     1  UNL1       -0.4504
     14 O          60.2220   89.6741   10.9419 O.2     1  UNL1       -0.1499
     15 S          61.3573   88.8612   11.4900 S.O2    1  UNL1        0.0736
     16 O          62.4926   88.0484   12.0380 O.2     1  UNL1       -0.1499
     17 C          61.2558   87.9296   10.3187 C.ar    1  UNL1        0.1268
     18 C          60.0124   87.9122    9.4798 C.ar    1  UNL1        0.0316
     19 C          59.9108   86.9806    8.3086 C.ar    1  UNL1        0.0599
     20 CL         58.6674   86.9632    7.4697 Cl      1  UNL1       -0.0822
     21 C          61.0526   86.0664    7.9763 C.ar    1  UNL1        0.0229
     22 C          62.2960   86.0838    8.8152 C.ar    1  UNL1        0.0599
     23 CL         63.4378   85.1695    8.4828 Cl      1  UNL1       -0.0822
     24 C          62.3976   87.0154    9.9864 C.ar    1  UNL1        0.0316
@<TRIPOS>BOND
     1    14    15    2
     2    15    16    2
     3    15     1    1
     4     1     3    1
     5     3     4   ar
     6     4     5   ar
     7     5     6   ar
     8     6     9    1
     9     9    10   ar
    10    10    11   ar
    11    11    12   ar
    12    12    13   ar
    13     6     7   ar
    14     7     8   ar
    15    15    17    1
    16    17    18   ar
    17    18    19   ar
    18    19    20    1
    19    19    21   ar
    20    21    22   ar
    21    22    23    1
    22    22    24   ar
    23     8     3   ar
    24    24    17   ar
    25    13     9   ar
    26     1     2    1
@<TRIPOS>MOLECULE
*****
 24 26 0 0 0
SMALL
GASTEIGER

@<TRIPOS>ATOM
      1 N          63.6372   91.7075   12.7193 N.pl3   1  UNL1       -0.2150
      2 H          62.8872   92.2420   13.0671 H       1  UNL1        0.1737
      3 C          63.7085   90.2374   13.0092 C.ar    1  UNL1        0.0648
      4 C          64.3951   89.7502   14.2507 C.ar    1  UNL1        0.0160
      5 C          64.4664   88.2802   14.5405 C.ar    1  UNL1        0.0043
      6 C          63.8511   87.2975   13.5888 C.ar    1  UNL1        0.0346
      7 C          63.1646   87.7847   12.3473 C.ar    1  UNL1        0.0043
      8 C          63.0933   89.2547   12.0575 C.ar    1  UNL1        0.0160
      9 C          63.9224   85.8274   13.8787 C.ar    1  UNL1        0.1454
     10 C          63.4739   84.7258   12.9647 C.ar    1  UNL1        0.0407
     11 C          63.7290   83.4185   13.6545 C.ar    1  UNL1        0.0438
     12 C          64.3352   83.7122   14.9948 C.ar    1  UNL1        0.1796
     13 O          64.4548   85.2009   15.1333 O.2     1  UNL1       -0.4504
     14 O          64.0039   91.9446   10.6435 O.2     1  UNL1       -0.1499
     15 S          64.7087   92.3631   11.8996 S.O2    1  UNL1        0.0736
     16 O          65.4136   92.7817   13.1558 O.2     1  UNL1       -0.1499
     17 C          65.7803   93.0188   11.0799 C.ar    1  UNL1        0.1268
     18 C          65.8433   94.5146   10.9863 C.ar    1  UNL1        0.0316
     19 C          66.9148   95.1703   10.1666 C.ar    1  UNL1        0.0599
     20 CL         66.9777   96.6660   10.0729 Cl      1  UNL1       -0.0822
     21 C          67.9233   94.3302    9.4406 C.ar    1  UNL1        0.0229
     22 C          67.8604   92.8345    9.5343 C.ar    1  UNL1        0.0599
     23 CL         68.8690   91.9944    8.8082 Cl      1  UNL1       -0.0822
     24 C          66.7889   92.1788   10.3539 C.ar    1  UNL1        0.0316
@<TRIPOS>BOND
     1    14    15    2
     2    15    16    2
     3    15     1    1
     4     1     3    1
     5     3     4   ar
     6     4     5   ar
     7     5     6   ar
     8     6     9    1
     9     9    10   ar
    10    10    11   ar
    11    11    12   ar
    12    12    13   ar
    13     6     7   ar
    14     7     8   ar
    15    15    17    1
    16    17    18   ar
    17    18    19   ar
    18    19    20    1
    19    19    21   ar
    20    21    22   ar
    21    22    23    1
    22    22    24   ar
    23     8     3   ar
    24    24    17   ar
    25    13     9   ar
    26     1     2    1
@<TRIPOS>MOLECULE
*****
 24 26 0 0 0
SMALL
GASTEIGER

@<TRIPOS>ATOM
      1 N          63.6764   91.8544   12.6161 N.pl3   1  UNL1       -0.2150
      2 H          62.9362   92.4071   12.9565 H       1  UNL1        0.1737
      3 C          63.7196   90.3869   12.9239 C.ar    1  UNL1        0.0648
      4 C          63.0998   89.4033   11.9761 C.ar    1  UNL1        0.0160
      5 C          63.1431   87.9358   12.2839 C.ar    1  UNL1        0.0043
      6 C          63.8062   87.4521   13.5394 C.ar    1  UNL1        0.0346
      7 C          64.4259   88.4357   14.4872 C.ar    1  UNL1        0.0043
      8 C          64.3827   89.9031   14.1794 C.ar    1  UNL1        0.0160
      9 C          63.8494   85.9846   13.8472 C.ar    1  UNL1        0.1454
     10 C          64.9588   85.2644   14.5548 C.ar    1  UNL1        0.0407
     11 C          64.5860   83.8144   14.6463 C.ar    1  UNL1        0.0438
     12 C          63.2461   83.6384   13.9952 C.ar    1  UNL1        0.1796
     13 O          62.7909   84.9796   13.5013 O.2     1  UNL1       -0.4504
     14 O          64.0745   92.0170   10.5389 O.2     1  UNL1       -0.1499
     15 S          64.7608   92.4797   11.7898 S.O2    1  UNL1        0.0736
     16 O          65.4472   92.9424   13.0407 O.2     1  UNL1       -0.1499
     17 C          65.8454   93.1051   10.9635 C.ar    1  UNL1        0.1268
     18 C          66.8559   92.2383   10.2724 C.ar    1  UNL1        0.0316
     19 C          67.9404   92.8636    9.4461 C.ar    1  UNL1        0.0599
     20 CL         68.9508   91.9969    8.7549 Cl      1  UNL1       -0.0822
     21 C          68.0145   94.3556    9.3110 C.ar    1  UNL1        0.0229
     22 C          67.0040   95.2224   10.0022 C.ar    1  UNL1        0.0599
     23 CL         67.0781   96.7145    9.8670 Cl      1  UNL1       -0.0822
     24 C          65.9195   94.5971   10.8284 C.ar    1  UNL1        0.0316
@<TRIPOS>BOND
     1    14    15    2
     2    15    16    2
     3    15     1    1
     4     1     3    1
     5     3     4   ar
     6     4     5   ar
     7     5     6   ar
     8     6     9    1
     9     9    10   ar
    10    10    11   ar
    11    11    12   ar
    12    12    13   ar
    13     6     7   ar
    14     7     8   ar
    15    15    17    1
    16    17    18   ar
    17    18    19   ar
    18    19    20    1
    19    19    21   ar
    20    21    22   ar
    21    22    23    1
    22    22    24   ar
    23     8     3   ar
    24    24    17   ar
    25    13     9   ar
    26     1     2    1
@<TRIPOS>MOLECULE
*****
 24 26 0 0 0
SMALL
GASTEIGER

@<TRIPOS>ATOM
      1 N          62.1946   89.3204   12.3415 N.pl3   1  UNL1       -0.2150
      2 H          61.4881   89.4894   13.0060 H       1  UNL1        0.1737
      3 C          63.1071   90.4330   11.9177 C.ar    1  UNL1        0.0648
      4 C          64.0620   91.0369   12.9043 C.ar    1  UNL1        0.0160
      5 C          64.9744   92.1494   12.4804 C.ar    1  UNL1        0.0043
      6 C          64.9320   92.6580   11.0699 C.ar    1  UNL1        0.0346
      7 C          63.9772   92.0541   10.0833 C.ar    1  UNL1        0.0043
      8 C          63.0647   90.9416   10.5072 C.ar    1  UNL1        0.0160
      9 C          65.8445   93.7706   10.6460 C.ar    1  UNL1        0.1454
     10 C          66.9761   93.6585    9.6678 C.ar    1  UNL1        0.0407
     11 C          67.6166   95.0091    9.5432 C.ar    1  UNL1        0.0438
     12 C          66.8808   95.9560   10.4444 C.ar    1  UNL1        0.1796
     13 O          65.7856   95.1905   11.1260 O.2     1  UNL1       -0.4504
     14 O          63.4913   87.6800   12.6985 O.2     1  UNL1       -0.1499
     15 S          62.3586   87.9505   11.7530 S.O2    1  UNL1        0.0736
     16 O          61.2260   88.2210   10.8076 O.2     1  UNL1       -0.1499
     17 C          62.5226   86.5805   11.1645 C.ar    1  UNL1        0.1268
     18 C          62.6158   85.3840   12.0643 C.ar    1  UNL1        0.0316
     19 C          62.7798   84.0140   11.4758 C.ar    1  UNL1        0.0599
     20 CL         62.8729   82.8175   12.3756 Cl      1  UNL1       -0.0822
     21 C          62.8506   83.8407    9.9876 C.ar    1  UNL1        0.0229
     22 C          62.7575   85.0372    9.0878 C.ar    1  UNL1        0.0599
     23 CL         62.8283   84.8638    7.5995 Cl      1  UNL1       -0.0822
     24 C          62.5935   86.4071    9.6763 C.ar    1  UNL1        0.0316
@<TRIPOS>BOND
     1    14    15    2
     2    15    16    2
     3    15     1    1
     4     1     3    1
     5     3     4   ar
     6     4     5   ar
     7     5     6   ar
     8     6     9    1
     9     9    10   ar
    10    10    11   ar
    11    11    12   ar
    12    12    13   ar
    13     6     7   ar
    14     7     8   ar
    15    15    17    1
    16    17    18   ar
    17    18    19   ar
    18    19    20    1
    19    19    21   ar
    20    21    22   ar
    21    22    23    1
    22    22    24   ar
    23     8     3   ar
    24    24    17   ar
    25    13     9   ar
    26     1     2    1
@<TRIPOS>MOLECULE
*****
 24 26 0 0 0
SMALL
GASTEIGER

@<TRIPOS>ATOM
      1 N          62.2059   89.2606   12.3620 N.pl3   1  UNL1       -0.2150
      2 H          61.5026   89.4259   13.0307 H       1  UNL1        0.1737
      3 C          63.1119   90.3771   11.9347 C.ar    1  UNL1        0.0648
      4 C          64.0606   90.9921   12.9205 C.ar    1  UNL1        0.0160
      5 C          64.9666   92.1086   12.4932 C.ar    1  UNL1        0.0043
      6 C          64.9239   92.6101   11.0802 C.ar    1  UNL1        0.0346
      7 C          63.9752   91.9952   10.0944 C.ar    1  UNL1        0.0043
      8 C          63.0692   90.8787   10.5217 C.ar    1  UNL1        0.0160
      9 C          65.8299   93.7267   10.6530 C.ar    1  UNL1        0.1454
     10 C          66.9889   93.6091    9.7080 C.ar    1  UNL1        0.0407
     11 C          67.6113   94.9666    9.5667 C.ar    1  UNL1        0.0438
     12 C          66.8370   95.9231   10.4243 C.ar    1  UNL1        0.1796
     13 O          65.7360   95.1568   11.0957 O.2     1  UNL1       -0.4504
     14 O          61.2573   88.1743   10.8063 O.2     1  UNL1       -0.1499
     15 S          62.3714   87.8922   11.7702 S.O2    1  UNL1        0.0736
     16 O          63.4855   87.6102   12.7341 O.2     1  UNL1       -0.1499
     17 C          62.5370   86.5238   11.1785 C.ar    1  UNL1        0.1268
     18 C          62.6141   86.3547    9.6900 C.ar    1  UNL1        0.0316
     19 C          62.7796   84.9863    9.0983 C.ar    1  UNL1        0.0599
     20 CL         62.8567   84.8172    7.6099 Cl      1  UNL1       -0.0822
     21 C          62.8682   83.7872    9.9950 C.ar    1  UNL1        0.0229
     22 C          62.7912   83.9563   11.4834 C.ar    1  UNL1        0.0599
     23 CL         62.8797   82.7570   12.3801 Cl      1  UNL1       -0.0822
     24 C          62.6256   85.3246   12.0752 C.ar    1  UNL1        0.0316
@<TRIPOS>BOND
     1    14    15    2
     2    15    16    2
     3    15     1    1
     4     1     3    1
     5     3     4   ar
     6     4     5   ar
     7     5     6   ar
     8     6     9    1
     9     9    10   ar
    10    10    11   ar
    11    11    12   ar
    12    12    13   ar
    13     6     7   ar
    14     7     8   ar
    15    15    17    1
    16    17    18   ar
    17    18    19   ar
    18    19    20    1
    19    19    21   ar
    20    21    22   ar
    21    22    23    1
    22    22    24   ar
    23     8     3   ar
    24    24    17   ar
    25    13     9   ar
    26     1     2    1
@<TRIPOS>MOLECULE
*****
 24 26 0 0 0
SMALL
GASTEIGER

@<TRIPOS>ATOM
      1 N          62.1277   89.5164   12.1988 N.pl3   1  UNL1       -0.2150
      2 H          61.2488   89.9599   12.1994 H       1  UNL1        0.1737
      3 C          63.3109   90.1956   12.8224 C.ar    1  UNL1        0.0648
      4 C          63.7065   89.8690   14.2319 C.ar    1  UNL1        0.0160
      5 C          64.8897   90.5482   14.8553 C.ar    1  UNL1        0.0043
      6 C          65.6773   91.5541   14.0693 C.ar    1  UNL1        0.0346
      7 C          65.2817   91.8807   12.6597 C.ar    1  UNL1        0.0043
      8 C          64.0985   91.2015   12.0363 C.ar    1  UNL1        0.0160
      9 C          66.8605   92.2333   14.6928 C.ar    1  UNL1        0.1454
     10 C          66.8953   92.8760   16.0477 C.ar    1  UNL1        0.0407
     11 C          68.2729   93.4290   16.2632 C.ar    1  UNL1        0.0438
     12 C          69.0895   93.1280   15.0414 C.ar    1  UNL1        0.1796
     13 O          68.2166   92.3891   14.0709 O.2     1  UNL1       -0.4504
     14 O          63.2093   87.7571   12.6834 O.2     1  UNL1       -0.1499
     15 S          62.2837   88.1615   11.5745 S.O2    1  UNL1        0.0736
     16 O          61.3581   88.5659   10.4656 O.2     1  UNL1       -0.1499
     17 C          62.4397   86.8065   10.9501 C.ar    1  UNL1        0.1268
     18 C          62.6130   85.5959   11.8187 C.ar    1  UNL1        0.0316
     19 C          62.7690   84.2410   11.1945 C.ar    1  UNL1        0.0599
     20 CL         62.9423   83.0304   12.0631 Cl      1  UNL1       -0.0822
     21 C          62.7516   84.0966    9.7015 C.ar    1  UNL1        0.0229
     22 C          62.5782   85.3072    8.8329 C.ar    1  UNL1        0.0599
     23 CL         62.5608   85.1628    7.3400 Cl      1  UNL1       -0.0822
     24 C          62.4223   86.6621    9.4572 C.ar    1  UNL1        0.0316
@<TRIPOS>BOND
     1    14    15    2
     2    15    16    2
     3    15     1    1
     4     1     3    1
     5     3     4   ar
     6     4     5   ar
     7     5     6   ar
     8     6     9    1
     9     9    10   ar
    10    10    11   ar
    11    11    12   ar
    12    12    13   ar
    13     6     7   ar
    14     7     8   ar
    15    15    17    1
    16    17    18   ar
    17    18    19   ar
    18    19    20    1
    19    19    21   ar
    20    21    22   ar
    21    22    23    1
    22    22    24   ar
    23     8     3   ar
    24    24    17   ar
    25    13     9   ar
    26     1     2    1
@<TRIPOS>MOLECULE
*****
 24 26 0 0 0
SMALL
GASTEIGER

@<TRIPOS>ATOM
      1 N          61.6204   89.5502   12.3350 N.pl3   1  UNL1       -0.2150
      2 H          60.8345   89.6404   12.9211 H       1  UNL1        0.1737
      3 C          61.5946   88.5818   11.1897 C.ar    1  UNL1        0.0648
      4 C          60.7492   88.8682    9.9842 C.ar    1  UNL1        0.0160
      5 C          60.7234   87.8999    8.8390 C.ar    1  UNL1        0.0043
      6 C          61.5431   86.6451    8.8993 C.ar    1  UNL1        0.0346
      7 C          62.3886   86.3587   10.1047 C.ar    1  UNL1        0.0043
      8 C          62.4143   87.3270   11.2499 C.ar    1  UNL1        0.0160
      9 C          61.5174   85.6767    7.7540 C.ar    1  UNL1        0.1454
     10 C          62.7058   84.9767    7.1643 C.ar    1  UNL1        0.0407
     11 C          62.2217   84.1057    6.0432 C.ar    1  UNL1        0.0438
     12 C          60.7339   84.2674    5.9400 C.ar    1  UNL1        0.1796
     13 O          60.2987   85.2383    6.9973 O.2     1  UNL1       -0.4504
     14 O          63.0082   89.7315   13.9290 O.2     1  UNL1       -0.1499
     15 S          62.8434   90.3812   12.5871 S.O2    1  UNL1        0.0736
     16 O          62.6786   91.0309   11.2453 O.2     1  UNL1       -0.1499
     17 C          64.0665   91.2123   12.8393 C.ar    1  UNL1        0.1268
     18 C          64.6345   91.3098   14.2241 C.ar    1  UNL1        0.0316
     19 C          65.8575   92.1408   14.4763 C.ar    1  UNL1        0.0599
     20 CL         66.4256   92.2383   15.8611 Cl      1  UNL1       -0.0822
     21 C          66.5125   92.8742   13.3436 C.ar    1  UNL1        0.0229
     22 C          65.9444   92.7767   11.9588 C.ar    1  UNL1        0.0599
     23 CL         66.5995   93.5102   10.8261 Cl      1  UNL1       -0.0822
     24 C          64.7214   91.9457   11.7066 C.ar    1  UNL1        0.0316
@<TRIPOS>BOND
     1    14    15    2
     2    15    16    2
     3    15     1    1
     4     1     3    1
     5     3     4   ar
     6     4     5   ar
     7     5     6   ar
     8     6     9    1
     9     9    10   ar
    10    10    11   ar
    11    11    12   ar
    12    12    13   ar
    13     6     7   ar
    14     7     8   ar
    15    15    17    1
    16    17    18   ar
    17    18    19   ar
    18    19    20    1
    19    19    21   ar
    20    21    22   ar
    21    22    23    1
    22    22    24   ar
    23     8     3   ar
    24    24    17   ar
    25    13     9   ar
    26     1     2    1
@<TRIPOS>MOLECULE
*****
 24 26 0 0 0
SMALL
GASTEIGER

@<TRIPOS>ATOM
      1 N          61.7329   89.4329   12.4070 N.pl3   1  UNL1       -0.2150
      2 H          60.9748   89.4817   13.0332 H       1  UNL1        0.1737
      3 C          61.6858   88.4858   11.2447 C.ar    1  UNL1        0.0648
      4 C          60.8946   88.8396   10.0205 C.ar    1  UNL1        0.0160
      5 C          60.8475   87.8925    8.8583 C.ar    1  UNL1        0.0043
      6 C          61.5916   86.5915    8.9203 C.ar    1  UNL1        0.0346
      7 C          62.3828   86.2377   10.1446 C.ar    1  UNL1        0.0043
      8 C          62.4299   87.1849   11.3068 C.ar    1  UNL1        0.0160
      9 C          61.5445   85.6444    7.7581 C.ar    1  UNL1        0.1454
     10 C          62.7218   84.9560    7.1335 C.ar    1  UNL1        0.0407
     11 C          62.2168   84.1055    6.0058 C.ar    1  UNL1        0.0438
     12 C          60.7274   84.2683    5.9334 C.ar    1  UNL1        0.1796
     13 O          60.3119   85.2194    7.0164 O.2     1  UNL1       -0.4504
     14 O          63.0296   89.8363   14.0365 O.2     1  UNL1       -0.1499
     15 S          62.9349   90.3057   12.6150 S.O2    1  UNL1        0.0736
     16 O          62.8402   90.7750   11.1935 O.2     1  UNL1       -0.1499
     17 C          64.1370   91.1785   12.8230 C.ar    1  UNL1        0.1268
     18 C          64.6476   92.0318   11.7000 C.ar    1  UNL1        0.0316
     19 C          65.8497   92.9046   11.9080 C.ar    1  UNL1        0.0599
     20 CL         66.3603   93.7579   10.7850 Cl      1  UNL1       -0.0822
     21 C          66.5411   92.9240   13.2389 C.ar    1  UNL1        0.0229
     22 C          66.0305   92.0707   14.3619 C.ar    1  UNL1        0.0599
     23 CL         66.7220   92.0902   15.6929 Cl      1  UNL1       -0.0822
     24 C          64.8285   91.1979   14.1540 C.ar    1  UNL1        0.0316
@<TRIPOS>BOND
     1    14    15    2
     2    15    16    2
     3    15     1    1
     4     1     3    1
     5     3     4   ar
     6     4     5   ar
     7     5     6   ar
     8     6     9    1
     9     9    10   ar
    10    10    11   ar
    11    11    12   ar
    12    12    13   ar
    13     6     7   ar
    14     7     8   ar
    15    15    17    1
    16    17    18   ar
    17    18    19   ar
    18    19    20    1
    19    19    21   ar
    20    21    22   ar
    21    22    23    1
    22    22    24   ar
    23     8     3   ar
    24    24    17   ar
    25    13     9   ar
    26     1     2    1
