@<TRIPOS>MOLECULE
*****
 31 33 0 0 0
SMALL
GASTEIGER

@<TRIPOS>ATOM
      1 C          63.3431   90.0454   12.1382 C.ar    1  UNL1        0.0942
      2 C          63.5825   90.9275   10.9489 C.ar    1  UNL1        0.1078
      3 N          64.4980   92.1101   11.0643 N.ar    1  UNL1       -0.2119
      4 C          65.1741   92.4107   12.3692 C.ar    1  UNL1        0.2206
      5 N          64.9347   91.5286   13.5586 N.ar    1  UNL1       -0.2094
      6 C          64.0192   90.3459   13.4431 C.ar    1  UNL1        0.1613
      7 O          60.9409   89.0612   12.0353 O.2     1  UNL1       -0.2700
      8 C          62.4277   88.8628   12.0228 C.2     1  UNL1        0.2488
      9 N          62.9990   87.4818   11.8947 N.am    1  UNL1       -0.3008
     10 H          63.9748   87.3515   11.8865 H       1  UNL1        0.1497
     11 C          62.0835   86.2992   11.7793 C.3     1  UNL1        0.0898
     12 C          62.6301   84.9102   11.9281 C.3     1  UNL1        0.0246
     13 C          62.6930   84.2702   13.2832 C.3     1  UNL1        0.0338
     14 C          63.2396   82.8813   13.4320 C.3     1  UNL1        0.1422
     15 O          63.7233   82.1324   12.2257 O.3     1  UNL1       -0.3538
     16 C          63.6604   82.7724   10.8706 C.3     1  UNL1        0.1422
     17 C          63.1138   84.1613   10.7218 C.3     1  UNL1        0.0338
     18 C          63.7797   89.4638   14.6324 C.3     1  UNL1        0.4351
     19 F          63.5403   88.5818   15.8218 F       1  UNL1       -0.1644
     20 F          62.5692   90.2743   14.9898 F       1  UNL1       -0.1644
     21 F          64.9903   88.6534   14.2750 F       1  UNL1       -0.1644
     22 N          66.0895   93.5933   12.4847 N.pl3   1  UNL1       -0.2819
     23 H          66.4745   93.8343   13.3581 H       1  UNL1        0.1551
     24 C          66.4184   94.4086   11.2693 C.ar    1  UNL1        0.0612
     25 C          65.8959   95.8088   11.1417 C.ar    1  UNL1        0.0164
     26 C          66.2247   96.6242    9.9263 C.ar    1  UNL1        0.0127
     27 C          67.0761   96.0394    8.8387 C.ar    1  UNL1        0.0586
     28 CL         67.4050   96.8548    7.6234 Cl      1  UNL1       -0.0822
     29 C          67.5987   94.6392    8.9663 C.ar    1  UNL1        0.0240
     30 C          67.2698   93.8238   10.1817 C.ar    1  UNL1        0.0719
     31 CL         67.7924   92.4235   10.3093 Cl      1  UNL1       -0.0809
@<TRIPOS>BOND
     1     7     8    2
     2     8     9   am
     3     9    11    1
     4    11    12    1
     5    12    13    1
     6    13    14    1
     7    14    15    1
     8    15    16    1
     9    16    17    1
    10     8     1    1
    11     1     2   ar
    12     2     3   ar
    13     3     4   ar
    14     4    22    1
    15    22    24    1
    16    24    25   ar
    17    25    26   ar
    18    26    27   ar
    19    27    28    1
    20    27    29   ar
    21    29    30   ar
    22    30    31    1
    23     4     5   ar
    24     5     6   ar
    25     6    18    1
    26    18    19    1
    27    18    20    1
    28    18    21    1
    29    17    12    1
    30     6     1   ar
    31    30    24   ar
    32     9    10    1
    33    22    23    1
@<TRIPOS>MOLECULE
*****
 31 33 0 0 0
SMALL
GASTEIGER

@<TRIPOS>ATOM
      1 C          63.5171   90.3614   11.9319 C.ar    1  UNL1        0.0942
      2 C          63.0298   90.2833   10.5154 C.ar    1  UNL1        0.1078
      3 N          62.1922   89.1202   10.0734 N.ar    1  UNL1       -0.2119
      4 C          61.8418   88.0350   11.0479 C.ar    1  UNL1        0.2206
      5 N          62.3290   88.1130   12.4644 N.ar    1  UNL1       -0.2094
      6 C          63.1667   89.2762   12.9064 C.ar    1  UNL1        0.1613
      7 O          64.2962   91.9928   13.7978 O.2     1  UNL1       -0.2700
      8 C          64.3547   91.5245   12.3740 C.2     1  UNL1        0.2488
      9 N          65.2509   92.2195   11.3921 N.am    1  UNL1       -0.3008
     10 H          65.2893   91.9121   10.4576 H       1  UNL1        0.1497
     11 C          66.0885   93.3826   11.8342 C.3     1  UNL1        0.0898
     12 C          66.5724   94.3839   10.8275 C.3     1  UNL1        0.0246
     13 C          67.2417   93.9183    9.5685 C.3     1  UNL1        0.0338
     14 C          67.7256   94.9196    8.5619 C.3     1  UNL1        0.1422
     15 O          67.5402   96.3865    8.8143 O.3     1  UNL1       -0.3538
     16 C          66.8709   96.8521   10.0734 C.3     1  UNL1        0.1422
     17 C          66.3870   95.8508   11.0799 C.3     1  UNL1        0.0338
     18 C          63.6539   89.3542   14.3229 C.3     1  UNL1        0.4351
     19 F          64.1412   89.4323   15.7395 F       1  UNL1       -0.1644
     20 F          62.3992   90.0768   14.7147 F       1  UNL1       -0.1644
     21 F          64.9087   88.6316   13.9311 F       1  UNL1       -0.1644
     22 N          61.0042   86.8718   10.6059 N.pl3   1  UNL1       -0.2819
     23 H          60.2686   86.5502   11.1757 H       1  UNL1        0.1551
     24 C          61.2872   86.1987    9.2956 C.ar    1  UNL1        0.0612
     25 C          62.6008   85.5088    9.0752 C.ar    1  UNL1        0.0164
     26 C          62.8838   84.8357    7.7650 C.ar    1  UNL1        0.0127
     27 C          61.8534   84.8525    6.6751 C.ar    1  UNL1        0.0586
     28 CL         62.1364   84.1793    5.3649 Cl      1  UNL1       -0.0822
     29 C          60.5399   85.5424    6.8955 C.ar    1  UNL1        0.0240
     30 C          60.2568   86.2155    8.2058 C.ar    1  UNL1        0.0719
     31 CL         58.9432   86.9055    8.4261 Cl      1  UNL1       -0.0809
@<TRIPOS>BOND
     1     7     8    2
     2     8     9   am
     3     9    11    1
     4    11    12    1
     5    12    13    1
     6    13    14    1
     7    14    15    1
     8    15    16    1
     9    16    17    1
    10     8     1    1
    11     1     2   ar
    12     2     3   ar
    13     3     4   ar
    14     4    22    1
    15    22    24    1
    16    24    25   ar
    17    25    26   ar
    18    26    27   ar
    19    27    28    1
    20    27    29   ar
    21    29    30   ar
    22    30    31    1
    23     4     5   ar
    24     5     6   ar
    25     6    18    1
    26    18    19    1
    27    18    20    1
    28    18    21    1
    29    17    12    1
    30     6     1   ar
    31    30    24   ar
    32     9    10    1
    33    22    23    1
@<TRIPOS>MOLECULE
*****
 31 33 0 0 0
SMALL
GASTEIGER

@<TRIPOS>ATOM
      1 C          63.1979   88.8859   12.2160 C.ar    1  UNL1        0.0942
      2 C          63.9823   88.5679   13.4544 C.ar    1  UNL1        0.1078
      3 N          64.0285   87.1610   13.9724 N.ar    1  UNL1       -0.2119
      4 C          63.2902   86.0719   13.2520 C.ar    1  UNL1        0.2206
      5 N          62.5057   86.3898   12.0136 N.ar    1  UNL1       -0.2094
      6 C          62.4596   87.7969   11.4956 C.ar    1  UNL1        0.1613
      7 O          61.8330   90.9295   11.3731 O.2     1  UNL1       -0.2700
      8 C          63.1517   90.2928   11.6980 C.2     1  UNL1        0.2488
      9 N          64.4243   91.0631   11.5048 N.am    1  UNL1       -0.3008
     10 H          65.2898   90.6452   11.7181 H       1  UNL1        0.1497
     11 C          64.3781   92.4700   10.9868 C.3     1  UNL1        0.0898
     12 C          65.6451   93.1599   10.5759 C.3     1  UNL1        0.0246
     13 C          66.8223   92.3534   10.1137 C.3     1  UNL1        0.0338
     14 C          68.0892   93.0433    9.7027 C.3     1  UNL1        0.1422
     15 O          68.1789   94.5398    9.7540 O.3     1  UNL1       -0.3538
     16 C          67.0017   95.3463   10.2163 C.3     1  UNL1        0.1422
     17 C          65.7348   94.6564   10.6272 C.3     1  UNL1        0.0338
     18 C          61.6751   88.1148   10.2573 C.3     1  UNL1        0.4351
     19 F          60.8907   88.4327    9.0189 F       1  UNL1       -0.1644
     20 F          60.4389   88.2967   11.0871 F       1  UNL1       -0.1644
     21 F          62.9114   87.9329    9.4275 F       1  UNL1       -0.1644
     22 N          63.3364   84.6650   13.7700 N.pl3   1  UNL1       -0.2819
     23 H          63.4070   84.4988   14.7378 H       1  UNL1        0.1551
     24 C          63.2749   83.5112   12.8135 C.ar    1  UNL1        0.0612
     25 C          63.9231   83.6194   11.4651 C.ar    1  UNL1        0.0164
     26 C          63.8617   82.4656   10.5086 C.ar    1  UNL1        0.0127
     27 C          63.1521   81.2036   10.9004 C.ar    1  UNL1        0.0586
     28 CL         63.0907   80.0498    9.9439 Cl      1  UNL1       -0.0822
     29 C          62.5039   81.0953   12.2487 C.ar    1  UNL1        0.0240
     30 C          62.5653   82.2491   13.2053 C.ar    1  UNL1        0.0719
     31 CL         61.9170   82.1408   14.5537 Cl      1  UNL1       -0.0809
@<TRIPOS>BOND
     1     7     8    2
     2     8     9   am
     3     9    11    1
     4    11    12    1
     5    12    13    1
     6    13    14    1
     7    14    15    1
     8    15    16    1
     9    16    17    1
    10     8     1    1
    11     1     2   ar
    12     2     3   ar
    13     3     4   ar
    14     4    22    1
    15    22    24    1
    16    24    25   ar
    17    25    26   ar
    18    26    27   ar
    19    27    28    1
    20    27    29   ar
    21    29    30   ar
    22    30    31    1
    23     4     5   ar
    24     5     6   ar
    25     6    18    1
    26    18    19    1
    27    18    20    1
    28    18    21    1
    29    17    12    1
    30     6     1   ar
    31    30    24   ar
    32     9    10    1
    33    22    23    1
@<TRIPOS>MOLECULE
*****
 31 33 0 0 0
SMALL
GASTEIGER

@<TRIPOS>ATOM
      1 C          63.3294   90.5611   11.8509 C.ar    1  UNL1        0.0942
      2 C          62.7750   90.7042   10.4644 C.ar    1  UNL1        0.1078
      3 N          61.8603   89.6525    9.9101 N.ar    1  UNL1       -0.2119
      4 C          61.5000   88.4576   10.7423 C.ar    1  UNL1        0.2206
      5 N          62.0544   88.3144   12.1287 N.ar    1  UNL1       -0.2094
      6 C          62.9691   89.3662   12.6830 C.ar    1  UNL1        0.1613
      7 O          64.2289   91.9220   13.8728 O.2     1  UNL1       -0.2700
      8 C          64.2440   91.6128   12.4052 C.2     1  UNL1        0.2488
      9 N          65.1738   92.3553   11.4917 N.am    1  UNL1       -0.3008
     10 H          65.1837   92.1523   10.5284 H       1  UNL1        0.1497
     11 C          66.0884   93.4070   12.0460 C.3     1  UNL1        0.0898
     12 C          66.9520   93.0998   13.2335 C.3     1  UNL1        0.0246
     13 C          66.8191   93.9120   14.4876 C.3     1  UNL1        0.0338
     14 C          67.6827   93.6048   15.6750 C.3     1  UNL1        0.1422
     15 O          68.6790   92.4855   15.6083 O.3     1  UNL1       -0.3538
     16 C          68.8119   91.6734   14.3542 C.3     1  UNL1        0.1422
     17 C          67.9483   91.9805   13.1668 C.3     1  UNL1        0.0338
     18 C          63.5235   89.2230   14.0694 C.3     1  UNL1        0.4351
     19 F          64.0779   89.0799   15.4558 F       1  UNL1       -0.1644
     20 F          62.3819   90.0323   14.6095 F       1  UNL1       -0.1644
     21 F          64.6652   88.4138   13.5293 F       1  UNL1       -0.1644
     22 N          60.5854   87.4059   10.1880 N.pl3   1  UNL1       -0.2819
     23 H          59.6914   87.2753   10.5790 H       1  UNL1        0.1551
     24 C          61.0328   86.5532    9.0379 C.ar    1  UNL1        0.0612
     25 C          62.4285   86.0044    9.0096 C.ar    1  UNL1        0.0164
     26 C          62.8760   85.1517    7.8595 C.ar    1  UNL1        0.0127
     27 C          61.9278   84.8478    6.7377 C.ar    1  UNL1        0.0586
     28 CL         62.3752   83.9951    5.5876 Cl      1  UNL1       -0.0822
     29 C          60.5321   85.3966    6.7660 C.ar    1  UNL1        0.0240
     30 C          60.0846   86.2493    7.9161 C.ar    1  UNL1        0.0719
     31 CL         58.6888   86.7981    7.9443 Cl      1  UNL1       -0.0809
@<TRIPOS>BOND
     1     7     8    2
     2     8     9   am
     3     9    11    1
     4    11    12    1
     5    12    13    1
     6    13    14    1
     7    14    15    1
     8    15    16    1
     9    16    17    1
    10     8     1    1
    11     1     2   ar
    12     2     3   ar
    13     3     4   ar
    14     4    22    1
    15    22    24    1
    16    24    25   ar
    17    25    26   ar
    18    26    27   ar
    19    27    28    1
    20    27    29   ar
    21    29    30   ar
    22    30    31    1
    23     4     5   ar
    24     5     6   ar
    25     6    18    1
    26    18    19    1
    27    18    20    1
    28    18    21    1
    29    17    12    1
    30     6     1   ar
    31    30    24   ar
    32     9    10    1
    33    22    23    1
@<TRIPOS>MOLECULE
*****
 31 33 0 0 0
SMALL
GASTEIGER

@<TRIPOS>ATOM
      1 C          63.5386   89.3314   12.7654 C.ar    1  UNL1        0.0942
      2 C          63.9633   88.1238   13.5473 C.ar    1  UNL1        0.1078
      3 N          63.4539   86.7657   13.1652 N.ar    1  UNL1       -0.2119
      4 C          62.5199   86.6151   12.0011 C.ar    1  UNL1        0.2206
      5 N          62.0953   87.8227   11.2192 N.ar    1  UNL1       -0.2094
      6 C          62.6047   89.1809   11.6014 C.ar    1  UNL1        0.1613
      7 O          63.6040   91.3228   14.4328 O.2     1  UNL1       -0.2700
      8 C          64.0480   90.6895   13.1476 C.2     1  UNL1        0.2488
      9 N          65.0013   91.4145   12.2444 N.am    1  UNL1       -0.3008
     10 H          65.2928   90.9989   11.4009 H       1  UNL1        0.1497
     11 C          65.5107   92.7726   12.6265 C.3     1  UNL1        0.0898
     12 C          66.1817   93.6378   11.6012 C.3     1  UNL1        0.0246
     13 C          66.9403   93.0093   10.4701 C.3     1  UNL1        0.0338
     14 C          67.6113   93.8744    9.4449 C.3     1  UNL1        0.1422
     15 O          67.5238   95.3681    9.5507 O.3     1  UNL1       -0.3538
     16 C          66.7652   95.9967   10.6819 C.3     1  UNL1        0.1422
     17 C          66.0942   95.1315   11.7071 C.3     1  UNL1        0.0338
     18 C          62.1800   90.3885   10.8195 C.3     1  UNL1        0.4351
     19 F          61.7554   91.5961   10.0376 F       1  UNL1       -0.1644
     20 F          60.9933   90.5554   11.7217 F       1  UNL1       -0.1644
     21 F          63.3667   90.2216    9.9173 F       1  UNL1       -0.1644
     22 N          62.0106   85.2570   11.6190 N.pl3   1  UNL1       -0.2819
     23 H          61.2976   85.1702   10.9457 H       1  UNL1        0.1551
     24 C          62.5875   84.0312   12.2628 C.ar    1  UNL1        0.0612
     25 C          62.2163   83.6792   13.6728 C.ar    1  UNL1        0.0164
     26 C          62.7933   82.4533   14.3165 C.ar    1  UNL1        0.0127
     27 C          63.7415   81.5795   13.5502 C.ar    1  UNL1        0.0586
     28 CL         64.3184   80.3536   14.1940 Cl      1  UNL1       -0.0822
     29 C          64.1127   81.9314   12.1402 C.ar    1  UNL1        0.0240
     30 C          63.5357   83.1573   11.4964 C.ar    1  UNL1        0.0719
     31 CL         63.9070   83.5093   10.0863 Cl      1  UNL1       -0.0809
@<TRIPOS>BOND
     1     7     8    2
     2     8     9   am
     3     9    11    1
     4    11    12    1
     5    12    13    1
     6    13    14    1
     7    14    15    1
     8    15    16    1
     9    16    17    1
    10     8     1    1
    11     1     2   ar
    12     2     3   ar
    13     3     4   ar
    14     4    22    1
    15    22    24    1
    16    24    25   ar
    17    25    26   ar
    18    26    27   ar
    19    27    28    1
    20    27    29   ar
    21    29    30   ar
    22    30    31    1
    23     4     5   ar
    24     5     6   ar
    25     6    18    1
    26    18    19    1
    27    18    20    1
    28    18    21    1
    29    17    12    1
    30     6     1   ar
    31    30    24   ar
    32     9    10    1
    33    22    23    1
@<TRIPOS>MOLECULE
*****
 31 33 0 0 0
SMALL
GASTEIGER

@<TRIPOS>ATOM
      1 C          61.4917   88.2989   10.3494 C.ar    1  UNL1        0.0942
      2 C          60.7256   89.5846   10.2481 C.ar    1  UNL1        0.1078
      3 N          59.8315   89.8341    9.0699 N.ar    1  UNL1       -0.2119
      4 C          59.7035   88.7979    7.9928 C.ar    1  UNL1        0.2206
      5 N          60.4696   87.5123    8.0940 N.ar    1  UNL1       -0.2094
      6 C          61.3637   87.2628    9.2724 C.ar    1  UNL1        0.1613
      7 O          62.6882   86.6439   11.9553 O.2     1  UNL1       -0.2700
      8 C          62.3858   88.0494   11.5276 C.2     1  UNL1        0.2488
      9 N          62.9775   89.2055   12.2783 N.am    1  UNL1       -0.3008
     10 H          62.7790   90.1281   11.9976 H       1  UNL1        0.1497
     11 C          63.8715   88.9560   13.4565 C.3     1  UNL1        0.0898
     12 C          64.3114   90.1010   14.3201 C.3     1  UNL1        0.0246
     13 C          63.6521   90.3364   15.6467 C.3     1  UNL1        0.0338
     14 C          64.0919   91.4813   16.5101 C.3     1  UNL1        0.1422
     15 O          65.1910   92.3909   16.0470 O.3     1  UNL1       -0.3538
     16 C          65.8503   92.1556   14.7204 C.3     1  UNL1        0.1422
     17 C          65.4105   91.0107   13.8569 C.3     1  UNL1        0.0338
     18 C          62.1298   85.9772    9.3736 C.3     1  UNL1        0.4351
     19 F          62.8959   84.6915    9.4749 F       1  UNL1       -0.1644
     20 F          63.2671   86.5952    8.6155 F       1  UNL1       -0.1644
     21 F          60.9925   85.3592   10.1317 F       1  UNL1       -0.1644
     22 N          58.8094   89.0474    6.8145 N.pl3   1  UNL1       -0.2819
     23 H          58.0065   88.4939    6.6800 H       1  UNL1        0.1551
     24 C          59.1388   90.1403    5.8412 C.ar    1  UNL1        0.0612
     25 C          60.5704   90.4534    5.5213 C.ar    1  UNL1        0.0164
     26 C          60.8997   91.5462    4.5481 C.ar    1  UNL1        0.0127
     27 C          59.7974   92.3260    3.8947 C.ar    1  UNL1        0.0586
     28 CL         60.1267   93.4188    2.9214 Cl      1  UNL1       -0.0822
     29 C          58.3658   92.0128    4.2146 C.ar    1  UNL1        0.0240
     30 C          58.0365   90.9200    5.1879 C.ar    1  UNL1        0.0719
     31 CL         56.6048   90.6069    5.5078 Cl      1  UNL1       -0.0809
@<TRIPOS>BOND
     1     7     8    2
     2     8     9   am
     3     9    11    1
     4    11    12    1
     5    12    13    1
     6    13    14    1
     7    14    15    1
     8    15    16    1
     9    16    17    1
    10     8     1    1
    11     1     2   ar
    12     2     3   ar
    13     3     4   ar
    14     4    22    1
    15    22    24    1
    16    24    25   ar
    17    25    26   ar
    18    26    27   ar
    19    27    28    1
    20    27    29   ar
    21    29    30   ar
    22    30    31    1
    23     4     5   ar
    24     5     6   ar
    25     6    18    1
    26    18    19    1
    27    18    20    1
    28    18    21    1
    29    17    12    1
    30     6     1   ar
    31    30    24   ar
    32     9    10    1
    33    22    23    1
@<TRIPOS>MOLECULE
*****
 31 33 0 0 0
SMALL
GASTEIGER

@<TRIPOS>ATOM
      1 C          63.6959   88.4907   13.7795 C.ar    1  UNL1        0.0942
      2 C          64.1321   87.1500   14.2916 C.ar    1  UNL1        0.1078
      3 N          63.8053   85.9084   13.5161 N.ar    1  UNL1       -0.2119
      4 C          63.0421   86.0074   12.2285 C.ar    1  UNL1        0.2206
      5 N          62.6059   87.3481   11.7164 N.ar    1  UNL1       -0.2094
      6 C          62.9328   88.5898   12.4920 C.ar    1  UNL1        0.1613
      7 O          63.1098   90.1935   15.6522 O.2     1  UNL1       -0.2700
      8 C          64.0228   89.7323   14.5550 C.2     1  UNL1        0.2488
      9 N          65.2628   90.5129   14.2334 N.am    1  UNL1       -0.3008
     10 H          65.8620   90.2102   13.5133 H       1  UNL1        0.1497
     11 C          65.5897   91.7545   15.0089 C.3     1  UNL1        0.0898
     12 C          66.9898   92.2928   15.0075 C.3     1  UNL1        0.0246
     13 C          67.9703   91.8298   13.9712 C.3     1  UNL1        0.0338
     14 C          69.3704   92.3681   13.9698 C.3     1  UNL1        0.1422
     15 O          69.7899   93.3695   15.0049 O.3     1  UNL1       -0.3538
     16 C          68.8093   93.8325   16.0412 C.3     1  UNL1        0.1422
     17 C          67.4093   93.2942   16.0426 C.3     1  UNL1        0.0338
     18 C          62.4966   89.9305   11.9800 C.3     1  UNL1        0.4351
     19 F          62.0604   91.2712   11.4679 F       1  UNL1       -0.1644
     20 F          61.1833   89.7734   12.6874 F       1  UNL1       -0.1644
     21 F          63.8099   90.0876   11.2725 F       1  UNL1       -0.1644
     22 N          62.7152   84.7658   11.4530 N.pl3   1  UNL1       -0.2819
     23 H          62.5386   84.8215   10.4860 H       1  UNL1        0.1551
     24 C          62.6574   83.4392   12.1506 C.ar    1  UNL1        0.0612
     25 C          62.0714   83.3410   13.5279 C.ar    1  UNL1        0.0164
     26 C          62.0136   82.0144   14.2256 C.ar    1  UNL1        0.0127
     27 C          62.5419   80.7859   13.5460 C.ar    1  UNL1        0.0586
     28 CL         62.4841   79.4593   14.2437 Cl      1  UNL1       -0.0822
     29 C          63.1279   80.8841   12.1687 C.ar    1  UNL1        0.0240
     30 C          63.1857   82.2107   11.4711 C.ar    1  UNL1        0.0719
     31 CL         63.7718   82.3089   10.0937 Cl      1  UNL1       -0.0809
@<TRIPOS>BOND
     1     7     8    2
     2     8     9   am
     3     9    11    1
     4    11    12    1
     5    12    13    1
     6    13    14    1
     7    14    15    1
     8    15    16    1
     9    16    17    1
    10     8     1    1
    11     1     2   ar
    12     2     3   ar
    13     3     4   ar
    14     4    22    1
    15    22    24    1
    16    24    25   ar
    17    25    26   ar
    18    26    27   ar
    19    27    28    1
    20    27    29   ar
    21    29    30   ar
    22    30    31    1
    23     4     5   ar
    24     5     6   ar
    25     6    18    1
    26    18    19    1
    27    18    20    1
    28    18    21    1
    29    17    12    1
    30     6     1   ar
    31    30    24   ar
    32     9    10    1
    33    22    23    1
@<TRIPOS>MOLECULE
*****
 31 33 0 0 0
SMALL
GASTEIGER

@<TRIPOS>ATOM
      1 C          63.9094   89.9344   12.7920 C.ar    1  UNL1        0.0942
      2 C          64.0696   88.7348   13.6783 C.ar    1  UNL1        0.1078
      3 N          63.4734   87.4190   13.2744 N.ar    1  UNL1       -0.2119
      4 C          62.7171   87.3026   11.9842 C.ar    1  UNL1        0.2206
      5 N          62.5569   88.5022   11.0980 N.ar    1  UNL1       -0.2094
      6 C          63.1531   89.8181   11.5019 C.ar    1  UNL1        0.1613
      7 O          64.2909   91.7762   14.5842 O.2     1  UNL1       -0.2700
      8 C          64.5055   91.2502   13.1959 C.2     1  UNL1        0.2488
      9 N          65.3162   92.0401   12.2115 N.am    1  UNL1       -0.3008
     10 H          65.4570   91.6948   11.3004 H       1  UNL1        0.1497
     11 C          65.9123   93.3559   12.6154 C.3     1  UNL1        0.0898
     12 C          66.3643   94.3281   11.5663 C.3     1  UNL1        0.0246
     13 C          67.0008   93.8271   10.3039 C.3     1  UNL1        0.0338
     14 C          67.4527   94.7994    9.2549 C.3     1  UNL1        0.1422
     15 O          67.2682   96.2726    9.4683 O.3     1  UNL1       -0.3538
     16 C          66.6317   96.7736   10.7308 C.3     1  UNL1        0.1422
     17 C          66.1798   95.8014   11.7798 C.3     1  UNL1        0.0338
     18 C          62.9929   91.0176   10.6157 C.3     1  UNL1        0.4351
     19 F          62.8327   92.2172    9.7295 F       1  UNL1       -0.1644
     20 F          64.2956   90.6962    9.9451 F       1  UNL1       -0.1644
     21 F          61.6902   91.3391   11.2863 F       1  UNL1       -0.1644
     22 N          62.1210   85.9868   11.5803 N.pl3   1  UNL1       -0.2819
     23 H          61.7810   85.3689   12.2672 H       1  UNL1        0.1551
     24 C          62.0429   85.6124   10.1299 C.ar    1  UNL1        0.0612
     25 C          60.9649   86.1918    9.2627 C.ar    1  UNL1        0.0164
     26 C          60.8868   85.8174    7.8123 C.ar    1  UNL1        0.0127
     27 C          61.8868   84.8636    7.2290 C.ar    1  UNL1        0.0586
     28 CL         61.8087   84.4892    5.7786 Cl      1  UNL1       -0.0822
     29 C          62.9648   84.2842    8.0962 C.ar    1  UNL1        0.0240
     30 C          63.0429   84.6586    9.5466 C.ar    1  UNL1        0.0719
     31 CL         64.1210   84.0791   10.4138 Cl      1  UNL1       -0.0809
@<TRIPOS>BOND
     1     7     8    2
     2     8     9   am
     3     9    11    1
     4    11    12    1
     5    12    13    1
     6    13    14    1
     7    14    15    1
     8    15    16    1
     9    16    17    1
    10     8     1    1
    11     1     2   ar
    12     2     3   ar
    13     3     4   ar
    14     4    22    1
    15    22    24    1
    16    24    25   ar
    17    25    26   ar
    18    26    27   ar
    19    27    28    1
    20    27    29   ar
    21    29    30   ar
    22    30    31    1
    23     4     5   ar
    24     5     6   ar
    25     6    18    1
    26    18    19    1
    27    18    20    1
    28    18    21    1
    29    17    12    1
    30     6     1   ar
    31    30    24   ar
    32     9    10    1
    33    22    23    1
@<TRIPOS>MOLECULE
*****
 31 33 0 0 0
SMALL
GASTEIGER

@<TRIPOS>ATOM
      1 C          63.2005   86.9055   12.6874 C.ar    1  UNL1        0.0942
      2 C          62.8340   88.1517   11.9372 C.ar    1  UNL1        0.1078
      3 N          63.0314   89.4956   12.5734 N.ar    1  UNL1       -0.2119
      4 C          63.5954   89.5934   13.9600 C.ar    1  UNL1        0.2206
      5 N          63.9618   88.3472   14.7102 N.ar    1  UNL1       -0.2094
      6 C          63.7644   87.0033   14.0739 C.ar    1  UNL1        0.1613
      7 O          61.7727   85.2908   11.2369 O.2     1  UNL1       -0.2700
      8 C          63.0030   85.5617   12.0511 C.2     1  UNL1        0.2488
      9 N          64.0359   84.4885   12.2289 N.am    1  UNL1       -0.3008
     10 H          64.8435   84.6663   12.7633 H       1  UNL1        0.1497
     11 C          63.8385   83.1446   11.5927 C.3     1  UNL1        0.0898
     12 C          63.0874   82.0717   12.3239 C.3     1  UNL1        0.0246
     13 C          62.3080   82.4109   13.5597 C.3     1  UNL1        0.0338
     14 C          61.5570   81.3380   14.2909 C.3     1  UNL1        0.1422
     15 O          61.5853   79.9257   13.7861 O.3     1  UNL1       -0.3538
     16 C          62.3647   79.5864   12.5503 C.3     1  UNL1        0.1422
     17 C          63.1157   80.6594   11.8191 C.3     1  UNL1        0.0338
     18 C          64.1308   85.7571   14.8241 C.3     1  UNL1        0.4351
     19 F          64.4973   84.5110   15.5743 F       1  UNL1       -0.1644
     20 F          65.5850   86.0878   14.6630 F       1  UNL1       -0.1644
     21 F          62.6766   85.4265   14.9851 F       1  UNL1       -0.1644
     22 N          63.7928   90.9373   14.5963 N.pl3   1  UNL1       -0.2819
     23 H          63.0149   91.4515   14.9121 H       1  UNL1        0.1551
     24 C          65.1755   91.4979   14.7514 C.ar    1  UNL1        0.0612
     25 C          66.1803   91.3308   13.6504 C.ar    1  UNL1        0.0164
     26 C          67.5630   91.8914   13.8054 C.ar    1  UNL1        0.0127
     27 C          67.9408   92.6190   15.0615 C.ar    1  UNL1        0.0586
     28 CL         69.3234   93.1795   15.2166 Cl      1  UNL1       -0.0822
     29 C          66.9359   92.7860   16.1626 C.ar    1  UNL1        0.0240
     30 C          65.5532   92.2254   16.0075 C.ar    1  UNL1        0.0719
     31 CL         64.5484   92.3925   17.1086 Cl      1  UNL1       -0.0809
@<TRIPOS>BOND
     1     7     8    2
     2     8     9   am
     3     9    11    1
     4    11    12    1
     5    12    13    1
     6    13    14    1
     7    14    15    1
     8    15    16    1
     9    16    17    1
    10     8     1    1
    11     1     2   ar
    12     2     3   ar
    13     3     4   ar
    14     4    22    1
    15    22    24    1
    16    24    25   ar
    17    25    26   ar
    18    26    27   ar
    19    27    28    1
    20    27    29   ar
    21    29    30   ar
    22    30    31    1
    23     4     5   ar
    24     5     6   ar
    25     6    18    1
    26    18    19    1
    27    18    20    1
    28    18    21    1
    29    17    12    1
    30     6     1   ar
    31    30    24   ar
    32     9    10    1
    33    22    23    1
