@<TRIPOS>MOLECULE
*****
 25 28 0 0 0
SMALL
GASTEIGER

@<TRIPOS>ATOM
      1 C          62.8104   91.2361   10.3184 C.3     1  UNL1        0.0323
      2 C          63.0325   90.0916   11.2621 C.ar    1  UNL1       -0.0071
      3 C          63.8066   90.1448   12.5459 C.ar    1  UNL1        0.0336
      4 C          64.4944   91.3521   13.1113 C.3     1  UNL1        0.0497
      5 N          63.7721   88.7790   13.1650 N.ar    1  UNL1       -0.3272
      6 C          62.9766   87.8816   12.2638 C.ar    1  UNL1        0.1163
      7 C          62.6095   86.4306   12.3621 C.ar    1  UNL1        0.2601
      8 N          61.7854   85.7907   11.2845 N.ar    1  UNL1       -0.1087
      9 N          61.3283   86.6020   10.1085 N.ar    1  UNL1       -0.1434
     10 C          61.6955   88.0530   10.0102 C.ar    1  UNL1        0.1235
     11 C          62.5196   88.6928   11.0878 C.ar    1  UNL1        0.0385
     12 C          64.4193   88.3805   14.4582 C.3     1  UNL1        0.1058
     13 C          63.6788   88.5515   15.7514 C.3     1  UNL1        0.0226
     14 C          63.0635   89.4444   16.7878 C.3     1  UNL1        0.0020
     15 C          63.0114   87.9546   16.9549 C.3     1  UNL1        0.0019
     16 C          62.5961   86.7499   17.7463 C.3     1  UNL1        0.0001
     17 O          63.0666   85.6193   13.5382 O.3     1  UNL1       -0.4533
     18 C          64.0987   84.5466   13.3537 C.3     1  UNL1        0.2338
     19 C          63.8123   83.3758   12.4610 C.ar    1  UNL1        0.0214
     20 C          63.0014   82.2226   12.9734 C.ar    1  UNL1        0.0016
     21 C          62.7150   81.0517   12.0806 C.ar    1  UNL1        0.0294
     22 C          63.2394   81.0341   10.6754 C.ar    1  UNL1        0.1401
     23 F          62.9529   79.8633    9.7826 F       1  UNL1       -0.2042
     24 C          64.0502   82.1873   10.1629 C.ar    1  UNL1        0.0294
     25 C          64.3367   83.3582   11.0557 C.ar    1  UNL1        0.0016
@<TRIPOS>BOND
     1     1     2    1
     2     2     3   ar
     3     3     4    1
     4     3     5   ar
     5     5    12    1
     6    13    12    1
     7    13    14    1
     8    14    15    1
     9    15    16    1
    10     5     6   ar
    11     6     7   ar
    12     7    17    1
    13    17    18    1
    14    18    19    1
    15    19    20   ar
    16    20    21   ar
    17    21    22   ar
    18    22    23    1
    19    22    24   ar
    20    24    25   ar
    21     7     8   ar
    22     8     9   ar
    23     9    10   ar
    24    10    11   ar
    25    11     2   ar
    26    15    13    1
    27    11     6   ar
    28    25    19   ar
@<TRIPOS>MOLECULE
*****
 25 28 0 0 0
SMALL
GASTEIGER

@<TRIPOS>ATOM
      1 C          66.4104   92.3739   15.9266 C.3     1  UNL1        0.0323
      2 C          65.7745   92.1339   14.5894 C.ar    1  UNL1       -0.0071
      3 C          65.9341   92.9931   13.3702 C.ar    1  UNL1        0.0336
      4 C          66.7576   94.2432   13.2742 C.3     1  UNL1        0.0497
      5 N          65.1256   92.3828   12.2640 N.ar    1  UNL1       -0.3272
      6 C          64.4663   91.1463   12.7995 C.ar    1  UNL1        0.1163
      7 C          63.5526   90.1406   12.1641 C.ar    1  UNL1        0.2601
      8 N          63.0400   88.9812   12.9659 N.ar    1  UNL1       -0.1087
      9 N          63.4411   88.8274   14.4030 N.ar    1  UNL1       -0.1434
     10 C          64.3548   89.8331   15.0384 C.ar    1  UNL1        0.1235
     11 C          64.8674   90.9926   14.2367 C.ar    1  UNL1        0.0385
     12 C          64.9986   92.9153   10.8675 C.3     1  UNL1        0.1058
     13 C          66.2064   93.4481   10.1553 C.3     1  UNL1        0.0226
     14 C          66.9428   94.5925    9.5242 C.3     1  UNL1        0.0020
     15 C          67.5622   93.2266    9.5529 C.3     1  UNL1        0.0019
     16 C          68.7026   92.3102    9.2216 C.3     1  UNL1        0.0001
     17 O          63.1516   90.2944   10.7269 O.3     1  UNL1       -0.4533
     18 C          61.7115   90.1553   10.3311 C.3     1  UNL1        0.2338
     19 C          61.2571   88.9475    9.5664 C.ar    1  UNL1        0.0214
     20 C          60.0729   89.0414    8.6505 C.ar    1  UNL1        0.0016
     21 C          59.6185   87.8337    7.8858 C.ar    1  UNL1        0.0294
     22 C          60.3484   86.5320    8.0369 C.ar    1  UNL1        0.1401
     23 F          59.8941   85.3242    7.2721 F       1  UNL1       -0.2042
     24 C          61.5326   86.4380    8.9527 C.ar    1  UNL1        0.0294
     25 C          61.9870   87.6458    9.7175 C.ar    1  UNL1        0.0016
@<TRIPOS>BOND
     1     1     2    1
     2     2     3   ar
     3     3     4    1
     4     3     5   ar
     5     5    12    1
     6    13    12    1
     7    13    14    1
     8    14    15    1
     9    15    16    1
    10     5     6   ar
    11     6     7   ar
    12     7    17    1
    13    17    18    1
    14    18    19    1
    15    19    20   ar
    16    20    21   ar
    17    21    22   ar
    18    22    23    1
    19    22    24   ar
    20    24    25   ar
    21     7     8   ar
    22     8     9   ar
    23     9    10   ar
    24    10    11   ar
    25    11     2   ar
    26    15    13    1
    27    11     6   ar
    28    25    19   ar
@<TRIPOS>MOLECULE
*****
 25 28 0 0 0
SMALL
GASTEIGER

@<TRIPOS>ATOM
      1 C          62.4507   82.2046   11.9282 C.3     1  UNL1        0.0323
      2 C          62.8518   83.5464   12.4656 C.ar    1  UNL1       -0.0071
      3 C          63.5985   83.7976   13.7421 C.ar    1  UNL1        0.0336
      4 C          64.0752   82.7511   14.7053 C.3     1  UNL1        0.0497
      5 N          63.7848   85.2790   13.8862 N.ar    1  UNL1       -0.3272
      6 C          63.1532   85.9433   12.6988 C.ar    1  UNL1        0.1163
      7 C          63.0287   87.3849   12.3037 C.ar    1  UNL1        0.2601
      8 N          62.3276   87.7558   11.0305 N.ar    1  UNL1       -0.1087
      9 N          61.7510   86.6850   10.1526 N.ar    1  UNL1       -0.1434
     10 C          61.8755   85.2433   10.5477 C.ar    1  UNL1        0.1235
     11 C          62.5766   84.8725   11.8208 C.ar    1  UNL1        0.0385
     12 C          64.4805   85.9740   15.0189 C.3     1  UNL1        0.1058
     13 C          63.6779   86.6065   16.1170 C.3     1  UNL1        0.0226
     14 C          62.8223   86.4748   17.3421 C.3     1  UNL1        0.0020
     15 C          63.1432   87.8337   16.7938 C.3     1  UNL1        0.0019
     16 C          63.0197   89.3268   16.8682 C.3     1  UNL1        0.0001
     17 O          63.6053   88.4557   13.1817 O.3     1  UNL1       -0.4533
     18 C          63.4801   89.8974   12.7870 C.3     1  UNL1        0.2338
     19 C          64.5098   90.8906   13.2376 C.ar    1  UNL1        0.0214
     20 C          65.1547   90.7439   14.5840 C.ar    1  UNL1        0.0016
     21 C          66.1844   91.7371   15.0347 C.ar    1  UNL1        0.0294
     22 C          66.5694   92.8770   14.1390 C.ar    1  UNL1        0.1401
     23 F          67.5992   93.8702   14.5896 F       1  UNL1       -0.2042
     24 C          65.9247   93.0238   12.7926 C.ar    1  UNL1        0.0294
     25 C          64.8948   92.0306   12.3419 C.ar    1  UNL1        0.0016
@<TRIPOS>BOND
     1     1     2    1
     2     2     3   ar
     3     3     4    1
     4     3     5   ar
     5     5    12    1
     6    13    12    1
     7    13    14    1
     8    14    15    1
     9    15    16    1
    10     5     6   ar
    11     6     7   ar
    12     7    17    1
    13    17    18    1
    14    18    19    1
    15    19    20   ar
    16    20    21   ar
    17    21    22   ar
    18    22    23    1
    19    22    24   ar
    20    24    25   ar
    21     7     8   ar
    22     8     9   ar
    23     9    10   ar
    24    10    11   ar
    25    11     2   ar
    26    15    13    1
    27    11     6   ar
    28    25    19   ar
@<TRIPOS>MOLECULE
*****
 25 28 0 0 0
SMALL
GASTEIGER

@<TRIPOS>ATOM
      1 C          63.0938   91.4890   11.0268 C.3     1  UNL1        0.0323
      2 C          62.9785   90.0465   11.4217 C.ar    1  UNL1       -0.0071
      3 C          62.2867   88.9705   10.6384 C.ar    1  UNL1        0.0336
      4 C          61.5885   89.1481    9.3226 C.3     1  UNL1        0.0497
      5 N          62.4155   87.6857   11.4018 N.ar    1  UNL1       -0.3272
      6 C          63.1870   87.9678   12.6570 C.ar    1  UNL1        0.1163
      7 C          63.6176   87.0845   13.7903 C.ar    1  UNL1        0.2601
      8 N          64.3961   87.6602   14.9358 N.ar    1  UNL1       -0.1087
      9 N          64.7441   89.1192   14.9481 N.ar    1  UNL1       -0.1434
     10 C          64.3135   90.0025   13.8148 C.ar    1  UNL1        0.1235
     11 C          63.5350   89.4268   12.6692 C.ar    1  UNL1        0.0385
     12 C          61.8688   86.3530   10.9836 C.3     1  UNL1        0.1058
     13 C          61.9880   85.9080    9.5561 C.3     1  UNL1        0.0226
     14 C          62.8123   85.3506    8.4336 C.3     1  UNL1        0.0020
     15 C          61.3701   85.6946    8.2060 C.3     1  UNL1        0.0019
     16 C          60.1807   85.7699    7.2951 C.3     1  UNL1        0.0001
     17 O          63.2696   85.6254   13.7780 O.3     1  UNL1       -0.4533
     18 C          64.3108   84.6091   13.4131 C.3     1  UNL1        0.2338
     19 C          63.9572   83.4636   12.5116 C.ar    1  UNL1        0.0214
     20 C          63.1080   82.3390   13.0257 C.ar    1  UNL1        0.0016
     21 C          62.7544   81.1935   12.1242 C.ar    1  UNL1        0.0294
     22 C          63.2501   81.1724   10.7086 C.ar    1  UNL1        0.1401
     23 F          62.8966   80.0269    9.8072 F       1  UNL1       -0.2042
     24 C          64.0993   82.2969   10.1946 C.ar    1  UNL1        0.0294
     25 C          64.4529   83.4425   11.0960 C.ar    1  UNL1        0.0016
@<TRIPOS>BOND
     1     1     2    1
     2     2     3   ar
     3     3     4    1
     4     3     5   ar
     5     5    12    1
     6    13    12    1
     7    13    14    1
     8    14    15    1
     9    15    16    1
    10     5     6   ar
    11     6     7   ar
    12     7    17    1
    13    17    18    1
    14    18    19    1
    15    19    20   ar
    16    20    21   ar
    17    21    22   ar
    18    22    23    1
    19    22    24   ar
    20    24    25   ar
    21     7     8   ar
    22     8     9   ar
    23     9    10   ar
    24    10    11   ar
    25    11     2   ar
    26    15    13    1
    27    11     6   ar
    28    25    19   ar
@<TRIPOS>MOLECULE
*****
 25 28 0 0 0
SMALL
GASTEIGER

@<TRIPOS>ATOM
      1 C          63.5045   80.9776    9.8423 C.3     1  UNL1        0.0323
      2 C          63.2720   82.0967   10.8137 C.ar    1  UNL1       -0.0071
      3 C          63.2537   83.5601   10.4849 C.ar    1  UNL1        0.0336
      4 C          63.4646   84.1614    9.1268 C.3     1  UNL1        0.0497
      5 N          62.9874   84.3168   11.7524 N.ar    1  UNL1       -0.3272
      6 C          62.8412   83.3209   12.8646 C.ar    1  UNL1        0.1163
      7 C          62.5706   83.4862   14.3307 C.ar    1  UNL1        0.2601
      8 N          62.4759   82.2796   15.2166 N.ar    1  UNL1       -0.1087
      9 N          62.6518   80.9076   14.6365 N.ar    1  UNL1       -0.1434
     10 C          62.9224   80.7422   13.1704 C.ar    1  UNL1        0.1235
     11 C          63.0171   81.9489   12.2845 C.ar    1  UNL1        0.0385
     12 C          62.8853   85.8074   11.8845 C.3     1  UNL1        0.1058
     13 C          61.7818   86.5481   11.1891 C.3     1  UNL1        0.0226
     14 C          60.7687   87.6542   11.1728 C.3     1  UNL1        0.0020
     15 C          60.8836   86.7250   10.0008 C.3     1  UNL1        0.0019
     16 C          60.4312   86.2907    8.6382 C.3     1  UNL1        0.0001
     17 O          62.3947   84.8583   14.9108 O.3     1  UNL1       -0.4533
     18 C          63.5337   85.5214   15.6271 C.3     1  UNL1        0.2338
     19 C          63.6300   87.0179   15.6592 C.ar    1  UNL1        0.0214
     20 C          64.3121   87.7498   14.5415 C.ar    1  UNL1        0.0016
     21 C          64.4084   89.2463   14.5736 C.ar    1  UNL1        0.0294
     22 C          63.8226   90.0111   15.7234 C.ar    1  UNL1        0.1401
     23 F          63.9188   91.5076   15.7555 F       1  UNL1       -0.2042
     24 C          63.1404   89.2793   16.8410 C.ar    1  UNL1        0.0294
     25 C          63.0441   87.7827   16.8090 C.ar    1  UNL1        0.0016
@<TRIPOS>BOND
     1     1     2    1
     2     2     3   ar
     3     3     4    1
     4     3     5   ar
     5     5    12    1
     6    13    12    1
     7    13    14    1
     8    14    15    1
     9    15    16    1
    10     5     6   ar
    11     6     7   ar
    12     7    17    1
    13    17    18    1
    14    18    19    1
    15    19    20   ar
    16    20    21   ar
    17    21    22   ar
    18    22    23    1
    19    22    24   ar
    20    24    25   ar
    21     7     8   ar
    22     8     9   ar
    23     9    10   ar
    24    10    11   ar
    25    11     2   ar
    26    15    13    1
    27    11     6   ar
    28    25    19   ar
@<TRIPOS>MOLECULE
*****
 25 28 0 0 0
SMALL
GASTEIGER

@<TRIPOS>ATOM
      1 C          64.6712   92.6486   11.8919 C.3     1  UNL1        0.0323
      2 C          64.2402   91.2520   12.2290 C.ar    1  UNL1       -0.0071
      3 C          64.6426   90.4750   13.4474 C.ar    1  UNL1        0.0336
      4 C          65.5467   90.9582   14.5425 C.3     1  UNL1        0.0497
      5 N          63.9822   89.1300   13.3784 N.ar    1  UNL1       -0.3272
      6 C          63.1716   89.0758   12.1173 C.ar    1  UNL1        0.1163
      7 C          62.3090   88.0016   11.5241 C.ar    1  UNL1        0.2601
      8 N          61.6058   88.2389   10.2206 N.ar    1  UNL1       -0.1087
      9 N          61.7652   89.5504    9.5103 N.ar    1  UNL1       -0.1434
     10 C          62.6279   90.6245   10.1035 C.ar    1  UNL1        0.1235
     11 C          63.3311   90.3873   11.4070 C.ar    1  UNL1        0.0385
     12 C          64.1099   88.0320   14.3923 C.3     1  UNL1        0.1058
     13 C          63.5485   88.2154   15.7711 C.3     1  UNL1        0.0226
     14 C          63.1117   89.1183   16.8864 C.3     1  UNL1        0.0020
     15 C          63.0129   87.6299   17.0441 C.3     1  UNL1        0.0019
     16 C          62.6465   86.4326   17.8701 C.3     1  UNL1        0.0001
     17 O          62.1495   86.6900   12.2344 O.3     1  UNL1       -0.4533
     18 C          63.1309   85.5818   11.9922 C.3     1  UNL1        0.2338
     19 C          62.8559   84.2068   12.5249 C.ar    1  UNL1        0.0214
     20 C          62.8527   83.0292   11.5956 C.ar    1  UNL1        0.0016
     21 C          62.5777   81.6543   12.1283 C.ar    1  UNL1        0.0294
     22 C          62.3060   81.4567   13.5902 C.ar    1  UNL1        0.1401
     23 F          62.0311   80.0818   14.1229 F       1  UNL1       -0.2042
     24 C          62.3093   82.6342   14.5194 C.ar    1  UNL1        0.0294
     25 C          62.5842   84.0093   13.9868 C.ar    1  UNL1        0.0016
@<TRIPOS>BOND
     1     1     2    1
     2     2     3   ar
     3     3     4    1
     4     3     5   ar
     5     5    12    1
     6    13    12    1
     7    13    14    1
     8    14    15    1
     9    15    16    1
    10     5     6   ar
    11     6     7   ar
    12     7    17    1
    13    17    18    1
    14    18    19    1
    15    19    20   ar
    16    20    21   ar
    17    21    22   ar
    18    22    23    1
    19    22    24   ar
    20    24    25   ar
    21     7     8   ar
    22     8     9   ar
    23     9    10   ar
    24    10    11   ar
    25    11     2   ar
    26    15    13    1
    27    11     6   ar
    28    25    19   ar
@<TRIPOS>MOLECULE
*****
 25 28 0 0 0
SMALL
GASTEIGER

@<TRIPOS>ATOM
      1 C          61.8779   90.5174   10.5189 C.3     1  UNL1        0.0323
      2 C          62.2939   89.2246   11.1558 C.ar    1  UNL1       -0.0071
      3 C          61.9554   87.8493   10.6617 C.ar    1  UNL1        0.0336
      4 C          61.1414   87.5254    9.4440 C.3     1  UNL1        0.0497
      5 N          62.5736   86.8548   11.5990 N.ar    1  UNL1       -0.3272
      6 C          63.2943   87.6155   12.6725 C.ar    1  UNL1        0.1163
      7 C          64.0856   87.1637   13.8640 C.ar    1  UNL1        0.2601
      8 N          64.7040   88.1764   14.7815 N.ar    1  UNL1       -0.1087
      9 N          64.5310   89.6410   14.5075 N.ar    1  UNL1       -0.1434
     10 C          63.7397   90.0928   13.3160 C.ar    1  UNL1        0.1235
     11 C          63.1213   89.0800   12.3985 C.ar    1  UNL1        0.0385
     12 C          62.4866   85.3618   11.4834 C.3     1  UNL1        0.1058
     13 C          63.0715   84.6667   10.2898 C.3     1  UNL1        0.0226
     14 C          63.9574   83.6039    9.7102 C.3     1  UNL1        0.0020
     15 C          63.1988   84.5256    8.8018 C.3     1  UNL1        0.0019
     16 C          62.8343   84.9761    7.4183 C.3     1  UNL1        0.0001
     17 O          64.2585   85.6990   14.1379 O.3     1  UNL1       -0.4533
     18 C          63.1133   84.8975   14.6820 C.3     1  UNL1        0.2338
     19 C          62.9236   83.4731   14.2519 C.ar    1  UNL1        0.0214
     20 C          63.9722   82.7944   13.4213 C.ar    1  UNL1        0.0016
     21 C          63.7826   81.3700   12.9913 C.ar    1  UNL1        0.0294
     22 C          62.5443   80.6241   13.3918 C.ar    1  UNL1        0.1401
     23 F          62.3546   79.1997   12.9617 F       1  UNL1       -0.2042
     24 C          61.4957   81.3027   14.2223 C.ar    1  UNL1        0.0294
     25 C          61.6853   82.7272   14.6524 C.ar    1  UNL1        0.0016
@<TRIPOS>BOND
     1     1     2    1
     2     2     3   ar
     3     3     4    1
     4     3     5   ar
     5     5    12    1
     6    13    12    1
     7    13    14    1
     8    14    15    1
     9    15    16    1
    10     5     6   ar
    11     6     7   ar
    12     7    17    1
    13    17    18    1
    14    18    19    1
    15    19    20   ar
    16    20    21   ar
    17    21    22   ar
    18    22    23    1
    19    22    24   ar
    20    24    25   ar
    21     7     8   ar
    22     8     9   ar
    23     9    10   ar
    24    10    11   ar
    25    11     2   ar
    26    15    13    1
    27    11     6   ar
    28    25    19   ar
@<TRIPOS>MOLECULE
*****
 25 28 0 0 0
SMALL
GASTEIGER

@<TRIPOS>ATOM
      1 C          63.6520   81.4072   13.7703 C.3     1  UNL1        0.0323
      2 C          63.5269   82.7696   13.1555 C.ar    1  UNL1       -0.0071
      3 C          63.2598   83.0630   11.7089 C.ar    1  UNL1        0.0336
      4 C          63.0709   82.0453   10.6231 C.3     1  UNL1        0.0497
      5 N          63.2148   84.5526   11.5386 N.ar    1  UNL1       -0.3272
      6 C          63.4541   85.1798   12.8801 C.ar    1  UNL1        0.1163
      7 C          63.5212   86.6121   13.3207 C.ar    1  UNL1        0.2601
      8 N          63.7813   86.9424   14.7605 N.ar    1  UNL1       -0.1087
      9 N          63.9742   85.8405   15.7598 N.ar    1  UNL1       -0.1434
     10 C          63.9070   84.4082   15.3191 C.ar    1  UNL1        0.1235
     11 C          63.6470   84.0779   13.8793 C.ar    1  UNL1        0.0385
     12 C          62.9729   85.2862   10.2528 C.3     1  UNL1        0.1058
     13 C          61.6901   86.0357   10.0468 C.3     1  UNL1        0.0226
     14 C          60.6173   86.9435   10.5714 C.3     1  UNL1        0.0020
     15 C          60.5409   86.4263    9.1654 C.3     1  UNL1        0.0019
     16 C          59.8332   86.3532    7.8448 C.3     1  UNL1        0.0001
     17 O          63.3283   87.7140   12.3214 O.3     1  UNL1       -0.4533
     18 C          62.8844   89.0719   12.7787 C.3     1  UNL1        0.2338
     19 C          63.8878   90.1759   12.9348 C.ar    1  UNL1        0.0214
     20 C          64.0287   91.2182   11.8653 C.ar    1  UNL1        0.0016
     21 C          65.0321   92.3221   12.0214 C.ar    1  UNL1        0.0294
     22 C          65.8947   92.3838   13.2471 C.ar    1  UNL1        0.1401
     23 F          66.8981   93.4878   13.4032 F       1  UNL1       -0.2042
     24 C          65.7538   91.3416   14.3166 C.ar    1  UNL1        0.0294
     25 C          64.7503   90.2376   14.1605 C.ar    1  UNL1        0.0016
@<TRIPOS>BOND
     1     1     2    1
     2     2     3   ar
     3     3     4    1
     4     3     5   ar
     5     5    12    1
     6    13    12    1
     7    13    14    1
     8    14    15    1
     9    15    16    1
    10     5     6   ar
    11     6     7   ar
    12     7    17    1
    13    17    18    1
    14    18    19    1
    15    19    20   ar
    16    20    21   ar
    17    21    22   ar
    18    22    23    1
    19    22    24   ar
    20    24    25   ar
    21     7     8   ar
    22     8     9   ar
    23     9    10   ar
    24    10    11   ar
    25    11     2   ar
    26    15    13    1
    27    11     6   ar
    28    25    19   ar
@<TRIPOS>MOLECULE
*****
 25 28 0 0 0
SMALL
GASTEIGER

@<TRIPOS>ATOM
      1 C          65.2943   93.0340   11.9829 C.3     1  UNL1        0.0323
      2 C          64.6684   91.6999   12.2632 C.ar    1  UNL1       -0.0071
      3 C          64.9248   90.8410   13.4660 C.ar    1  UNL1        0.0336
      4 C          65.8520   91.1655   14.5996 C.3     1  UNL1        0.0497
      5 N          64.0911   89.6008   13.3361 N.ar    1  UNL1       -0.3272
      6 C          63.3196   89.6932   12.0530 C.ar    1  UNL1        0.1163
      7 C          62.3382   88.7636   11.4028 C.ar    1  UNL1        0.2601
      8 N          61.7136   89.1313   10.0896 N.ar    1  UNL1       -0.1087
      9 N          62.0704   90.4286    9.4265 N.ar    1  UNL1       -0.1434
     10 C          63.0518   91.3582   10.0767 C.ar    1  UNL1        0.1235
     11 C          63.6763   90.9905   11.3900 C.ar    1  UNL1        0.0385
     12 C          64.0383   88.4672   14.3170 C.3     1  UNL1        0.1058
     13 C          63.5560   88.7085   15.7167 C.3     1  UNL1        0.0226
     14 C          63.1739   89.6576   16.8136 C.3     1  UNL1        0.0020
     15 C          63.1027   88.1771   17.0442 C.3     1  UNL1        0.0019
     16 C          62.8000   87.0156   17.9438 C.3     1  UNL1        0.0001
     17 O          61.9814   87.4663   12.0660 O.3     1  UNL1       -0.4533
     18 C          62.4424   86.1685   11.4716 C.3     1  UNL1        0.2338
     19 C          62.1326   85.8475   10.0395 C.ar    1  UNL1        0.0214
     20 C          63.1660   85.1821    9.1795 C.ar    1  UNL1        0.0016
     21 C          62.8562   84.8610    7.7474 C.ar    1  UNL1        0.0294
     22 C          61.5130   85.2054    7.1752 C.ar    1  UNL1        0.1401
     23 F          61.2032   84.8844    5.7431 F       1  UNL1       -0.2042
     24 C          60.4797   85.8708    8.0351 C.ar    1  UNL1        0.0294
     25 C          60.7895   86.1919    9.4673 C.ar    1  UNL1        0.0016
@<TRIPOS>BOND
     1     1     2    1
     2     2     3   ar
     3     3     4    1
     4     3     5   ar
     5     5    12    1
     6    13    12    1
     7    13    14    1
     8    14    15    1
     9    15    16    1
    10     5     6   ar
    11     6     7   ar
    12     7    17    1
    13    17    18    1
    14    18    19    1
    15    19    20   ar
    16    20    21   ar
    17    21    22   ar
    18    22    23    1
    19    22    24   ar
    20    24    25   ar
    21     7     8   ar
    22     8     9   ar
    23     9    10   ar
    24    10    11   ar
    25    11     2   ar
    26    15    13    1
    27    11     6   ar
    28    25    19   ar
