@<TRIPOS>MOLECULE
*****
 33 36 0 0 0
SMALL
GASTEIGER

@<TRIPOS>ATOM
      1 N          63.5712   85.3039   14.3206 N.ar    1  UNL1       -0.1943
      2 C          64.5384   85.7317   15.3843 C.ar    1  UNL1        0.1013
      3 C          64.8558   87.1814   15.1663 C.ar    1  UNL1        0.0236
      4 C          64.0848   87.6496   13.9679 C.ar    1  UNL1        0.0374
      5 C          64.0031   88.9826   13.2850 C.ar    1  UNL1        0.0058
      6 C          63.1274   89.1553   12.0794 C.ar    1  UNL1        0.0344
      7 C          62.3335   87.9950   11.5568 C.ar    1  UNL1        0.1334
      8 N          62.4152   86.6618   12.2396 N.ar    1  UNL1       -0.2120
      9 C          63.2909   86.4892   13.4452 C.ar    1  UNL1        0.1648
     10 N          61.4578   88.1676   10.3511 N.pl3   1  UNL1       -0.2903
     11 C          61.0187   89.5397    9.9334 C.3     1  UNL1        0.1095
     12 C          60.1430   89.7123    8.7279 C.3     1  UNL1        0.0939
     13 N          59.7065   88.5129    7.9400 N.3     1  UNL1       -0.2686
     14 C          58.8309   88.6856    6.7344 C.3     1  UNL1        0.0897
     15 C          60.1457   87.1408    8.3577 C.3     1  UNL1        0.0939
     16 C          61.0214   86.9681    9.5632 C.3     1  UNL1        0.1095
     17 C          64.7970   90.1430   13.8077 C.ar    1  UNL1        0.0002
     18 C          65.7310   90.8837   12.8970 C.ar    1  UNL1       -0.0001
     19 C          66.5249   92.0440   13.4196 C.ar    1  UNL1        0.0039
     20 C          66.3849   92.4639   14.8529 C.ar    1  UNL1        0.0714
     21 C          65.4509   91.7232   15.7635 C.ar    1  UNL1        0.0039
     22 C          64.6569   90.5628   15.2409 C.ar    1  UNL1       -0.0001
     23 C          67.1788   93.6242   15.3756 C.3     1  UNL1        0.4186
     24 F          67.9727   94.7846   15.8982 F       1  UNL1       -0.1659
     25 F          67.6963   92.7671   16.4925 F       1  UNL1       -0.1659
     26 F          66.6613   94.4814   14.2586 F       1  UNL1       -0.1659
     27 S          62.9870   83.9316   14.1604 S.O2    1  UNL1        0.0675
     28 O          61.6481   84.4512   14.5934 O.2     1  UNL1       -0.1521
     29 O          64.3258   83.4121   13.7275 O.2     1  UNL1       -0.1521
     30 C          62.4027   82.5594   14.0002 C.3     1  UNL1        0.1751
     31 C          62.6157   82.5921   11.4111 C.3     1  UNL1        0.0019
     32 C          62.5536   81.8271   12.6999 C.3     1  UNL1        0.0258
     33 C          62.6423   80.3298   12.6883 C.3     1  UNL1        0.0019
@<TRIPOS>BOND
     1    31    32    1
     2    32    33    1
     3    32    30    1
     4    30    27    1
     5    27    28    2
     6    27    29    2
     7    27     1    1
     8     1     2   ar
     9     2     3   ar
    10     3     4   ar
    11     4     5   ar
    12     5    17    1
    13    17    18   ar
    14    18    19   ar
    15    19    20   ar
    16    20    23    1
    17    23    24    1
    18    23    25    1
    19    23    26    1
    20    20    21   ar
    21    21    22   ar
    22     5     6   ar
    23     6     7   ar
    24     7    10    1
    25    10    11    1
    26    11    12    1
    27    12    13    1
    28    13    14    1
    29    13    15    1
    30    15    16    1
    31     7     8   ar
    32     8     9   ar
    33     9     1   ar
    34     9     4   ar
    35    22    17   ar
    36    16    10    1
@<TRIPOS>MOLECULE
*****
 33 36 0 0 0
SMALL
GASTEIGER

@<TRIPOS>ATOM
      1 N          64.0808   88.4701   14.0246 N.ar    1  UNL1       -0.1943
      2 C          64.6060   87.3929   14.9267 C.ar    1  UNL1        0.1013
      3 C          64.1301   86.0724   14.3978 C.ar    1  UNL1        0.0236
      4 C          63.3106   86.3334   13.1688 C.ar    1  UNL1        0.0374
      5 C          62.5882   85.4133   12.2300 C.ar    1  UNL1        0.0058
      6 C          61.8354   85.9750   11.0605 C.ar    1  UNL1        0.0344
      7 C          61.8050   87.4567   10.8298 C.ar    1  UNL1        0.1334
      8 N          62.5274   88.3770   11.7687 N.ar    1  UNL1       -0.2120
      9 C          63.2802   87.8153   12.9382 C.ar    1  UNL1        0.1648
     10 N          61.0521   88.0185    9.6602 N.pl3   1  UNL1       -0.2903
     11 C          60.9493   89.5038    9.4778 C.3     1  UNL1        0.1095
     12 C          60.1965   90.0654    8.3083 C.3     1  UNL1        0.0939
     13 N          59.5465   89.1418    7.3212 N.3     1  UNL1       -0.2686
     14 C          58.7937   89.7036    6.1518 C.3     1  UNL1        0.0897
     15 C          59.6493   87.6565    7.5036 C.3     1  UNL1        0.0939
     16 C          60.4021   87.0948    8.6731 C.3     1  UNL1        0.1095
     17 C          62.6187   83.9314   12.4606 C.ar    1  UNL1        0.0002
     18 C          63.0023   83.0063   11.3438 C.ar    1  UNL1       -0.0001
     19 C          63.0327   81.5245   11.5744 C.ar    1  UNL1        0.0039
     20 C          62.6796   80.9677   12.9218 C.ar    1  UNL1        0.0714
     21 C          62.2960   81.8928   14.0385 C.ar    1  UNL1        0.0039
     22 C          62.2656   83.3747   13.8079 C.ar    1  UNL1       -0.0001
     23 C          62.7100   79.4859   13.1524 C.3     1  UNL1        0.4186
     24 F          62.7405   78.0040   13.3829 F       1  UNL1       -0.1659
     25 F          62.8494   79.7183   14.6277 F       1  UNL1       -0.1659
     26 F          62.5707   79.2534   11.6770 F       1  UNL1       -0.1659
     27 S          64.3150   89.9434   14.1814 S.O2    1  UNL1        0.0675
     28 O          64.5540   90.0625   12.7053 O.2     1  UNL1       -0.1521
     29 O          64.0761   89.8243   15.6574 O.2     1  UNL1       -0.1521
     30 C          64.5493   91.4166   14.3382 C.3     1  UNL1        0.1751
     31 C          66.0123   93.0449   12.9388 C.3     1  UNL1        0.0019
     32 C          65.8908   92.0019   14.0100 C.3     1  UNL1        0.0258
     33 C          67.1109   91.5442   14.7530 C.3     1  UNL1        0.0019
@<TRIPOS>BOND
     1    31    32    1
     2    32    33    1
     3    32    30    1
     4    30    27    1
     5    27    28    2
     6    27    29    2
     7    27     1    1
     8     1     2   ar
     9     2     3   ar
    10     3     4   ar
    11     4     5   ar
    12     5    17    1
    13    17    18   ar
    14    18    19   ar
    15    19    20   ar
    16    20    23    1
    17    23    24    1
    18    23    25    1
    19    23    26    1
    20    20    21   ar
    21    21    22   ar
    22     5     6   ar
    23     6     7   ar
    24     7    10    1
    25    10    11    1
    26    11    12    1
    27    12    13    1
    28    13    14    1
    29    13    15    1
    30    15    16    1
    31     7     8   ar
    32     8     9   ar
    33     9     1   ar
    34     9     4   ar
    35    22    17   ar
    36    16    10    1
@<TRIPOS>MOLECULE
*****
 33 36 0 0 0
SMALL
GASTEIGER

@<TRIPOS>ATOM
      1 N          61.4608   89.6374   10.5545 N.ar    1  UNL1       -0.1943
      2 C          61.8325   91.0904   10.5821 C.ar    1  UNL1        0.1013
      3 C          62.9134   91.2731   11.6059 C.ar    1  UNL1        0.0236
      4 C          63.2098   89.9330   12.2112 C.ar    1  UNL1        0.0374
      5 C          64.1811   89.5026   13.2700 C.ar    1  UNL1        0.0058
      6 C          64.2548   88.0614   13.6791 C.ar    1  UNL1        0.0344
      7 C          63.3571   87.0505   13.0294 C.ar    1  UNL1        0.1334
      8 N          62.3857   87.4809   11.9704 N.ar    1  UNL1       -0.2120
      9 C          62.3120   88.9221   11.5614 C.ar    1  UNL1        0.1648
     10 N          63.4307   85.6092   13.4385 N.pl3   1  UNL1       -0.2903
     11 C          62.7654   84.5571   12.6016 C.3     1  UNL1        0.1095
     12 C          62.8390   83.1159   13.0107 C.3     1  UNL1        0.0939
     13 N          63.5780   82.7267   14.2567 N.3     1  UNL1       -0.2686
     14 C          63.6516   81.2855   14.6657 C.3     1  UNL1        0.0897
     15 C          64.2434   83.7788   15.0936 C.3     1  UNL1        0.0939
     16 C          64.1697   85.2200   14.6845 C.3     1  UNL1        0.1095
     17 C          65.0789   90.5135   13.9198 C.ar    1  UNL1        0.0002
     18 C          66.2990   91.0060   13.1994 C.ar    1  UNL1       -0.0001
     19 C          67.1967   92.0168   13.8491 C.ar    1  UNL1        0.0039
     20 C          66.8744   92.5352   15.2194 C.ar    1  UNL1        0.0714
     21 C          65.6544   92.0427   15.9397 C.ar    1  UNL1        0.0039
     22 C          64.7566   91.0319   15.2900 C.ar    1  UNL1       -0.0001
     23 C          67.7721   93.5460   15.8691 C.3     1  UNL1        0.4186
     24 F          68.6699   94.5569   16.5189 F       1  UNL1       -0.1659
     25 F          67.2989   94.5890   14.9004 F       1  UNL1       -0.1659
     26 F          68.2454   92.5031   16.8378 F       1  UNL1       -0.1659
     27 S          60.4206   89.0099    9.6747 S.O2    1  UNL1        0.0675
     28 O          59.8218   88.3279   10.8689 O.2     1  UNL1       -0.1521
     29 O          61.0194   89.6919    8.4804 O.2     1  UNL1       -0.1521
     30 C          59.3803   88.3824    8.7948 C.3     1  UNL1        0.1751
     31 C          60.9023   86.3024    8.4675 C.3     1  UNL1        0.0019
     32 C          59.5931   87.0014    8.2496 C.3     1  UNL1        0.0258
     33 C          58.4967   86.3191    7.4863 C.3     1  UNL1        0.0019
@<TRIPOS>BOND
     1    31    32    1
     2    32    33    1
     3    32    30    1
     4    30    27    1
     5    27    28    2
     6    27    29    2
     7    27     1    1
     8     1     2   ar
     9     2     3   ar
    10     3     4   ar
    11     4     5   ar
    12     5    17    1
    13    17    18   ar
    14    18    19   ar
    15    19    20   ar
    16    20    23    1
    17    23    24    1
    18    23    25    1
    19    23    26    1
    20    20    21   ar
    21    21    22   ar
    22     5     6   ar
    23     6     7   ar
    24     7    10    1
    25    10    11    1
    26    11    12    1
    27    12    13    1
    28    13    14    1
    29    13    15    1
    30    15    16    1
    31     7     8   ar
    32     8     9   ar
    33     9     1   ar
    34     9     4   ar
    35    22    17   ar
    36    16    10    1
@<TRIPOS>MOLECULE
*****
 33 36 0 0 0
SMALL
GASTEIGER

@<TRIPOS>ATOM
      1 N          63.9161   87.1951   14.0910 N.ar    1  UNL1       -0.1943
      2 C          64.4573   85.9572   14.7428 C.ar    1  UNL1        0.1013
      3 C          64.0584   84.7794   13.9040 C.ar    1  UNL1        0.0236
      4 C          63.2707   85.2893   12.7338 C.ar    1  UNL1        0.0374
      5 C          62.6221   84.5870   11.5779 C.ar    1  UNL1        0.0058
      6 C          61.8855   85.3777   10.5376 C.ar    1  UNL1        0.0344
      7 C          61.7976   86.8705   10.6531 C.ar    1  UNL1        0.1334
      8 N          62.4461   87.5729   11.8091 N.ar    1  UNL1       -0.2120
      9 C          63.1827   86.7822   12.8494 C.ar    1  UNL1        0.1648
     10 N          61.0610   87.6613    9.6127 N.pl3   1  UNL1       -0.2903
     11 C          61.1774   89.1565    9.5853 C.3     1  UNL1        0.1095
     12 C          60.4408   89.9471    8.5449 C.3     1  UNL1        0.0939
     13 N          59.5878   89.2426    7.5320 N.3     1  UNL1       -0.2686
     14 C          58.8513   90.0333    6.4917 C.3     1  UNL1        0.0897
     15 C          59.4714   87.7474    7.5595 C.3     1  UNL1        0.0939
     16 C          60.2079   86.9567    8.5998 C.3     1  UNL1        0.1095
     17 C          62.7100   83.0940   11.4623 C.ar    1  UNL1        0.0002
     18 C          63.2281   82.4686   10.2010 C.ar    1  UNL1       -0.0001
     19 C          63.3160   80.9758   10.0854 C.ar    1  UNL1        0.0039
     20 C          62.8860   80.1081   11.2310 C.ar    1  UNL1        0.0714
     21 C          62.3681   80.7335   12.4922 C.ar    1  UNL1        0.0039
     22 C          62.2800   82.2265   12.6079 C.ar    1  UNL1       -0.0001
     23 C          62.9740   78.6152   11.1154 C.3     1  UNL1        0.4186
     24 F          63.0620   77.1223   10.9998 F       1  UNL1       -0.1659
     25 F          63.1666   78.7414    9.6332 F       1  UNL1       -0.1659
     26 F          62.7814   78.4890   12.5977 F       1  UNL1       -0.1659
     27 S          64.0795   88.5992   14.5928 S.O2    1  UNL1        0.0675
     28 O          64.4697   89.0461   13.2151 O.2     1  UNL1       -0.1521
     29 O          63.6893   88.1523   15.9705 O.2     1  UNL1       -0.1521
     30 C          64.2429   90.0033   15.0945 C.3     1  UNL1        0.1751
     31 C          64.1132   91.5822   13.0353 C.3     1  UNL1        0.0019
     32 C          64.8678   91.0459   14.2156 C.3     1  UNL1        0.0258
     33 C          66.2473   91.5522   14.5169 C.3     1  UNL1        0.0019
@<TRIPOS>BOND
     1    31    32    1
     2    32    33    1
     3    32    30    1
     4    30    27    1
     5    27    28    2
     6    27    29    2
     7    27     1    1
     8     1     2   ar
     9     2     3   ar
    10     3     4   ar
    11     4     5   ar
    12     5    17    1
    13    17    18   ar
    14    18    19   ar
    15    19    20   ar
    16    20    23    1
    17    23    24    1
    18    23    25    1
    19    23    26    1
    20    20    21   ar
    21    21    22   ar
    22     5     6   ar
    23     6     7   ar
    24     7    10    1
    25    10    11    1
    26    11    12    1
    27    12    13    1
    28    13    14    1
    29    13    15    1
    30    15    16    1
    31     7     8   ar
    32     8     9   ar
    33     9     1   ar
    34     9     4   ar
    35    22    17   ar
    36    16    10    1
