@<TRIPOS>MOLECULE
*****
 23 26 0 0 0
SMALL
GASTEIGER

@<TRIPOS>ATOM
      1 O          62.4400   81.6202   14.5712 O.2     1  UNL1       -0.2448
      2 C          63.4238   82.6660   14.1370 C.2     1  UNL1        0.3428
      3 C          63.6915   82.8840   12.6773 C.2     1  UNL1        0.0959
      4 C          64.6229   82.0775   11.8217 C.2     1  UNL1        0.1049
      5 N          64.5818   82.6418   10.4325 N.2     1  UNL1       -0.2476
      6 C          63.6250   83.7970   10.4295 C.2     1  UNL1        0.0646
      7 C          63.1837   84.7320    9.3428 C.3     1  UNL1        0.0859
      8 C          62.1922   85.8167    9.6434 C.2     1  UNL1        0.0687
      9 CL         61.7509   86.7517    8.5566 Cl      1  UNL1       -0.0842
     10 C          61.6420   85.9664   11.0308 C.2     1  UNL1        0.1470
     11 F          60.6505   87.0510   11.3314 F       1  UNL1       -0.2036
     12 C          62.0833   85.0314   12.1175 C.2     1  UNL1        0.0316
     13 C          63.0748   83.9467   11.8169 C.2     1  UNL1        0.0239
     14 O          64.1399   83.4938   15.1626 O.3     1  UNL1       -0.4454
     15 C          64.7312   84.8178   14.7782 C.3     1  UNL1        0.2087
     16 C          64.1917   86.0825   15.3777 C.3     1  UNL1        0.0445
     17 C          63.4111   86.0324   16.6576 C.3     1  UNL1        0.0210
     18 C          62.8717   87.2972   17.2571 C.3     1  UNL1        0.0722
     19 N          63.1129   88.6120   16.5766 N.3     1  UNL1       -0.2727
     20 C          63.8935   88.6621   15.2967 C.3     1  UNL1        0.0722
     21 C          64.4329   87.3973   14.6972 C.3     1  UNL1        0.0210
     22 C          63.4282   87.9456   16.2102 C.3     1  UNL1        0.0722
     23 C          63.9160   86.8020   15.6680 C.3     1  UNL1        0.0210
@<TRIPOS>BOND
     1     1     2    2
     2     2    14    1
     3    14    15    1
     4    15    16    1
     5    16    17    1
     6    17    18    1
     7    18    19    1
     8    19    20    1
     9    20    21    1
    10    19    22    1
    11    22    23    1
    12     2     3    1
    13     3     4    2
    14     4     5    1
    15     5     6    2
    16     6     7    1
    17     7     8    1
    18     8     9    1
    19     8    10    2
    20    10    11    1
    21    10    12    1
    22    12    13    2
    23    21    16    1
    24    13     3    1
    25    23    16    1
    26    13     6    1
@<TRIPOS>MOLECULE
*****
 23 26 0 0 0
SMALL
GASTEIGER

@<TRIPOS>ATOM
      1 O          63.6884   82.8758   15.2272 O.2     1  UNL1       -0.2448
      2 C          63.5830   84.0378   14.2846 C.2     1  UNL1        0.3428
      3 C          63.7921   83.8317   12.8136 C.2     1  UNL1        0.0959
      4 C          64.7719   82.8847   12.1865 C.2     1  UNL1        0.1049
      5 N          64.6434   83.0042   10.6968 N.2     1  UNL1       -0.2476
      6 C          63.5843   84.0250   10.4032 C.2     1  UNL1        0.0646
      7 C          63.0310   84.5549    9.1136 C.3     1  UNL1        0.0859
      8 C          61.9515   85.5963    9.1323 C.2     1  UNL1        0.0687
      9 CL         61.3983   86.1262    7.8427 Cl      1  UNL1       -0.0842
     10 C          61.4254   86.1078   10.4406 C.2     1  UNL1        0.1470
     11 F          60.3460   87.1492   10.4593 F       1  UNL1       -0.2036
     12 C          61.9788   85.5778   11.7302 C.2     1  UNL1        0.0316
     13 C          63.0582   84.5365   11.7115 C.2     1  UNL1        0.0239
     14 O          63.2686   85.4060   14.8130 O.3     1  UNL1       -0.4454
     15 C          64.3692   86.4066   15.0064 C.3     1  UNL1        0.2087
     16 C          64.0472   87.8693   15.0885 C.3     1  UNL1        0.0445
     17 C          64.2601   88.7523   13.8948 C.3     1  UNL1        0.0210
     18 C          63.9380   90.2150   13.9769 C.3     1  UNL1        0.0722
     19 N          63.4031   90.7947   15.2528 N.3     1  UNL1       -0.2727
     20 C          63.1901   89.9117   16.4465 C.3     1  UNL1        0.0722
     21 C          63.5122   88.4490   16.3643 C.3     1  UNL1        0.0210
     22 C          63.5650   89.9875   15.2556 C.3     1  UNL1        0.0722
     23 C          63.8562   88.6648   15.1815 C.3     1  UNL1        0.0210
@<TRIPOS>BOND
     1     1     2    2
     2     2    14    1
     3    14    15    1
     4    15    16    1
     5    16    17    1
     6    17    18    1
     7    18    19    1
     8    19    20    1
     9    20    21    1
    10    19    22    1
    11    22    23    1
    12     2     3    1
    13     3     4    2
    14     4     5    1
    15     5     6    2
    16     6     7    1
    17     7     8    1
    18     8     9    1
    19     8    10    2
    20    10    11    1
    21    10    12    1
    22    12    13    2
    23    21    16    1
    24    13     3    1
    25    23    16    1
    26    13     6    1
@<TRIPOS>MOLECULE
*****
 23 26 0 0 0
SMALL
GASTEIGER

@<TRIPOS>ATOM
      1 O          64.6859   82.8417   10.0987 O.2     1  UNL1       -0.2448
      2 C          63.6035   83.6642   10.7324 C.2     1  UNL1        0.3428
      3 C          63.1184   83.3306   12.1121 C.2     1  UNL1        0.0959
      4 C          62.4056   82.0743   12.5163 C.2     1  UNL1        0.1049
      5 N          62.1078   82.1621   13.9838 N.2     1  UNL1       -0.2476
      6 C          62.6365   83.4727   14.4865 C.2     1  UNL1        0.0646
      7 C          62.6299   84.1018   15.8482 C.3     1  UNL1        0.0859
      8 C          63.2479   85.4532   16.0531 C.2     1  UNL1        0.0687
      9 CL         63.2413   86.0822   17.4148 Cl      1  UNL1       -0.0842
     10 C          63.8726   86.1754   14.8963 C.2     1  UNL1        0.1470
     11 F          64.4906   87.5266   15.1011 F       1  UNL1       -0.2036
     12 C          63.8792   85.5462   13.5346 C.2     1  UNL1        0.0316
     13 C          63.2612   84.1949   13.3297 C.2     1  UNL1        0.0239
     14 O          63.0060   84.8203    9.9865 O.3     1  UNL1       -0.4454
     15 C          61.7524   85.4714   10.4912 C.3     1  UNL1        0.2087
     16 C          61.1392   86.6089    9.7298 C.3     1  UNL1        0.0445
     17 C          61.4710   88.0243   10.0993 C.3     1  UNL1        0.0210
     18 C          60.8577   89.1617    9.3377 C.3     1  UNL1        0.0722
     19 N          59.9125   88.8838    8.2066 N.3     1  UNL1       -0.2727
     20 C          59.5806   87.4685    7.8371 C.3     1  UNL1        0.0722
     21 C          60.1940   86.3310    8.5987 C.3     1  UNL1        0.0210
     22 C          60.2238   88.2278    8.5948 C.3     1  UNL1        0.0722
     23 C          60.7783   87.1992    9.2833 C.3     1  UNL1        0.0210
@<TRIPOS>BOND
     1     1     2    2
     2     2    14    1
     3    14    15    1
     4    15    16    1
     5    16    17    1
     6    17    18    1
     7    18    19    1
     8    19    20    1
     9    20    21    1
    10    19    22    1
    11    22    23    1
    12     2     3    1
    13     3     4    2
    14     4     5    1
    15     5     6    2
    16     6     7    1
    17     7     8    1
    18     8     9    1
    19     8    10    2
    20    10    11    1
    21    10    12    1
    22    12    13    2
    23    21    16    1
    24    13     3    1
    25    23    16    1
    26    13     6    1
@<TRIPOS>MOLECULE
*****
 23 26 0 0 0
SMALL
GASTEIGER

@<TRIPOS>ATOM
      1 O          63.5401   91.4138   14.5716 O.2     1  UNL1       -0.2448
      2 C          63.8306   90.8377   13.2174 C.2     1  UNL1        0.3428
      3 C          63.5486   89.3905   12.9417 C.2     1  UNL1        0.0959
      4 C          64.0166   88.2284   13.7666 C.2     1  UNL1        0.1049
      5 N          63.5063   86.9710   13.1274 N.2     1  UNL1       -0.2476
      6 C          62.7229   87.3560   11.9076 C.2     1  UNL1        0.0646
      7 C          61.9891   86.5382   10.8865 C.3     1  UNL1        0.0859
      8 C          61.2814   87.2157    9.7506 C.2     1  UNL1        0.0687
      9 CL         60.5476   86.3979    8.7295 Cl      1  UNL1       -0.0842
     10 C          61.3075   88.7111    9.6358 C.2     1  UNL1        0.1470
     11 F          60.5999   89.3886    8.5000 F       1  UNL1       -0.2036
     12 C          62.0414   89.5289   10.6570 C.2     1  UNL1        0.0316
     13 C          62.7490   88.8514   11.7928 C.2     1  UNL1        0.0239
     14 O          64.4032   91.7089   12.1390 O.3     1  UNL1       -0.4454
     15 C          65.7556   92.3328   12.3177 C.3     1  UNL1        0.2087
     16 C          66.5041   92.8546   11.1271 C.3     1  UNL1        0.0445
     17 C          66.1227   94.1720   10.5197 C.3     1  UNL1        0.0210
     18 C          66.8712   94.6937    9.3291 C.3     1  UNL1        0.0722
     19 N          68.0012   93.8980    8.7460 N.3     1  UNL1       -0.2727
     20 C          68.3827   92.5806    9.3534 C.3     1  UNL1        0.0722
     21 C          67.6341   92.0589   10.5440 C.3     1  UNL1        0.0210
     22 C          67.6204   93.5712    9.3987 C.3     1  UNL1        0.0722
     23 C          66.9436   93.0994   10.4752 C.3     1  UNL1        0.0210
@<TRIPOS>BOND
     1     1     2    2
     2     2    14    1
     3    14    15    1
     4    15    16    1
     5    16    17    1
     6    17    18    1
     7    18    19    1
     8    19    20    1
     9    20    21    1
    10    19    22    1
    11    22    23    1
    12     2     3    1
    13     3     4    2
    14     4     5    1
    15     5     6    2
    16     6     7    1
    17     7     8    1
    18     8     9    1
    19     8    10    2
    20    10    11    1
    21    10    12    1
    22    12    13    2
    23    21    16    1
    24    13     3    1
    25    23    16    1
    26    13     6    1
@<TRIPOS>MOLECULE
*****
 23 26 0 0 0
SMALL
GASTEIGER

@<TRIPOS>ATOM
      1 O          64.1151   91.5351   11.3533 O.2     1  UNL1       -0.2448
      2 C          63.6155   90.6997   12.4946 C.2     1  UNL1        0.3428
      3 C          63.2116   89.2742   12.2602 C.2     1  UNL1        0.0959
      4 C          63.6514   88.0891   13.0677 C.2     1  UNL1        0.1049
      5 N          63.0087   86.8661   12.4837 N.2     1  UNL1       -0.2476
      6 C          62.1717   87.2953   11.3153 C.2     1  UNL1        0.0646
      7 C          61.3115   86.5232   10.3593 C.3     1  UNL1        0.0859
      8 C          60.5768   87.2395    9.2651 C.2     1  UNL1        0.0687
      9 CL         59.7167   86.4674    8.3091 Cl      1  UNL1       -0.0842
     10 C          60.7022   88.7278    9.1269 C.2     1  UNL1        0.1470
     11 F          59.9675   89.4441    8.0328 F       1  UNL1       -0.2036
     12 C          61.5624   89.4999   10.0830 C.2     1  UNL1        0.0316
     13 C          62.2971   88.7837   11.1771 C.2     1  UNL1        0.0239
     14 O          63.5197   91.2899   13.8703 O.3     1  UNL1       -0.4454
     15 C          64.5530   90.9537   14.9043 C.3     1  UNL1        0.2087
     16 C          65.8903   91.6326   14.8766 C.3     1  UNL1        0.0445
     17 C          66.8393   91.3742   13.7441 C.3     1  UNL1        0.0210
     18 C          68.1766   92.0531   13.7165 C.3     1  UNL1        0.0722
     19 N          68.5648   92.9904   14.8214 N.3     1  UNL1       -0.2727
     20 C          67.6158   93.2487   15.9539 C.3     1  UNL1        0.0722
     21 C          66.2785   92.5698   15.9815 C.3     1  UNL1        0.0210
     22 C          67.8213   92.6416   14.8799 C.3     1  UNL1        0.0722
     23 C          66.6121   92.0278   14.9050 C.3     1  UNL1        0.0210
@<TRIPOS>BOND
     1     1     2    2
     2     2    14    1
     3    14    15    1
     4    15    16    1
     5    16    17    1
     6    17    18    1
     7    18    19    1
     8    19    20    1
     9    20    21    1
    10    19    22    1
    11    22    23    1
    12     2     3    1
    13     3     4    2
    14     4     5    1
    15     5     6    2
    16     6     7    1
    17     7     8    1
    18     8     9    1
    19     8    10    2
    20    10    11    1
    21    10    12    1
    22    12    13    2
    23    21    16    1
    24    13     3    1
    25    23    16    1
    26    13     6    1
@<TRIPOS>MOLECULE
*****
 23 26 0 0 0
SMALL
GASTEIGER

@<TRIPOS>ATOM
      1 O          65.9089   85.8418   14.9981 O.2     1  UNL1       -0.2448
      2 C          64.4870   85.8197   14.5211 C.2     1  UNL1        0.3428
      3 C          63.7417   84.5201   14.4446 C.2     1  UNL1        0.0959
      4 C          62.9359   83.8997   15.5471 C.2     1  UNL1        0.1049
      5 N          62.3676   82.6090   15.0360 N.2     1  UNL1       -0.2476
      6 C          62.8222   82.4318   13.6176 C.2     1  UNL1        0.0646
      7 C          62.5726   81.3475   12.6117 C.3     1  UNL1        0.0859
      8 C          63.1723   81.4443   11.2401 C.2     1  UNL1        0.0687
      9 CL         62.9227   80.3600   10.2342 Cl      1  UNL1       -0.0842
     10 C          64.0216   82.6255   10.8746 C.2     1  UNL1        0.1470
     11 F          64.6212   82.7223    9.5031 F       1  UNL1       -0.2036
     12 C          64.2712   83.7098   11.8806 C.2     1  UNL1        0.0316
     13 C          63.6715   83.6130   13.2521 C.2     1  UNL1        0.0239
     14 O          63.8103   87.0970   14.1205 O.3     1  UNL1       -0.4454
     15 C          64.1026   88.3661   14.8649 C.3     1  UNL1        0.2087
     16 C          64.3332   89.6419   14.1106 C.3     1  UNL1        0.0445
     17 C          63.5278   89.9426   12.8814 C.3     1  UNL1        0.0210
     18 C          63.7586   91.2185   12.1272 C.3     1  UNL1        0.0722
     19 N          64.7948   92.1936   12.6021 N.3     1  UNL1       -0.2727
     20 C          65.6002   91.8929   13.8312 C.3     1  UNL1        0.0722
     21 C          65.3694   90.6170   14.5855 C.3     1  UNL1        0.0210
     22 C          64.7040   91.5077   13.0483 C.3     1  UNL1        0.0722
     23 C          64.4955   90.3541   13.7305 C.3     1  UNL1        0.0210
@<TRIPOS>BOND
     1     1     2    2
     2     2    14    1
     3    14    15    1
     4    15    16    1
     5    16    17    1
     6    17    18    1
     7    18    19    1
     8    19    20    1
     9    20    21    1
    10    19    22    1
    11    22    23    1
    12     2     3    1
    13     3     4    2
    14     4     5    1
    15     5     6    2
    16     6     7    1
    17     7     8    1
    18     8     9    1
    19     8    10    2
    20    10    11    1
    21    10    12    1
    22    12    13    2
    23    21    16    1
    24    13     3    1
    25    23    16    1
    26    13     6    1
@<TRIPOS>MOLECULE
*****
 23 26 0 0 0
SMALL
GASTEIGER

@<TRIPOS>ATOM
      1 O          60.6556   89.4608   12.2462 O.2     1  UNL1       -0.2448
      2 C          61.5204   89.7455   11.0541 C.2     1  UNL1        0.3428
      3 C          62.7351   90.6136   11.1989 C.2     1  UNL1        0.0959
      4 C          63.4084   91.3784   10.0982 C.2     1  UNL1        0.1049
      5 N          64.5792   92.1067   10.6888 N.2     1  UNL1       -0.2476
      6 C          64.6294   91.7920   12.1546 C.2     1  UNL1        0.0646
      7 C          65.5657   92.2265   13.2429 C.3     1  UNL1        0.0859
      8 C          65.3623   91.7382   14.6466 C.2     1  UNL1        0.0687
      9 CL         66.2985   92.1727   15.7349 Cl      1  UNL1       -0.0842
     10 C          64.2225   90.8153   14.9618 C.2     1  UNL1        0.1470
     11 F          64.0190   90.3270   16.3654 F       1  UNL1       -0.2036
     12 C          63.2862   90.3809   13.8734 C.2     1  UNL1        0.0316
     13 C          63.4897   90.8692   12.4698 C.2     1  UNL1        0.0239
     14 O          61.1704   89.1622    9.7172 O.3     1  UNL1       -0.4454
     15 C          60.6125   87.7727    9.6280 C.3     1  UNL1        0.2087
     16 C          61.5022   86.5901    9.8728 C.3     1  UNL1        0.0445
     17 C          62.2920   85.9990    8.7429 C.3     1  UNL1        0.0210
     18 C          63.1816   84.8164    8.9878 C.3     1  UNL1        0.0722
     19 N          63.2815   84.2250   10.3627 N.3     1  UNL1       -0.2727
     20 C          62.4917   84.8161   11.4926 C.3     1  UNL1        0.0722
     21 C          61.6021   85.9987   11.2477 C.3     1  UNL1        0.0210
     22 C          62.7807   84.8729   10.2770 C.3     1  UNL1        0.0722
     23 C          61.9762   85.9422   10.0557 C.3     1  UNL1        0.0210
@<TRIPOS>BOND
     1     1     2    2
     2     2    14    1
     3    14    15    1
     4    15    16    1
     5    16    17    1
     6    17    18    1
     7    18    19    1
     8    19    20    1
     9    20    21    1
    10    19    22    1
    11    22    23    1
    12     2     3    1
    13     3     4    2
    14     4     5    1
    15     5     6    2
    16     6     7    1
    17     7     8    1
    18     8     9    1
    19     8    10    2
    20    10    11    1
    21    10    12    1
    22    12    13    2
    23    21    16    1
    24    13     3    1
    25    23    16    1
    26    13     6    1
@<TRIPOS>MOLECULE
*****
 23 26 0 0 0
SMALL
GASTEIGER

@<TRIPOS>ATOM
      1 O          62.9841   89.7775   10.1800 O.2     1  UNL1       -0.2448
      2 C          62.5478   89.2960   11.5319 C.2     1  UNL1        0.3428
      3 C          63.4597   89.4493   12.7130 C.2     1  UNL1        0.0959
      4 C          63.6357   88.4586   13.8254 C.2     1  UNL1        0.1049
      5 N          64.6405   89.0172   14.7889 N.2     1  UNL1       -0.2476
      6 C          65.0855   90.3532   14.2719 C.2     1  UNL1        0.0646
      7 C          66.0609   91.3610   14.8037 C.3     1  UNL1        0.0859
      8 C          66.3066   92.6359   14.0524 C.2     1  UNL1        0.0687
      9 CL         67.2820   93.6437   14.5842 Cl      1  UNL1       -0.0842
     10 C          65.5768   92.9029   12.7694 C.2     1  UNL1        0.1470
     11 F          65.8225   94.1777   12.0182 F       1  UNL1       -0.2036
     12 C          64.6014   91.8950   12.2377 C.2     1  UNL1        0.0316
     13 C          64.3557   90.6202   12.9889 C.2     1  UNL1        0.0239
     14 O          61.1996   88.6612   11.7028 O.3     1  UNL1       -0.4454
     15 C          60.7466   87.5945   10.7504 C.3     1  UNL1        0.2087
     16 C          61.6599   86.4536   10.4126 C.3     1  UNL1        0.0445
     17 C          62.0576   85.4714   11.4742 C.3     1  UNL1        0.0210
     18 C          62.9709   84.3305   11.1363 C.3     1  UNL1        0.0722
     19 N          63.4866   84.1718    9.7367 N.3     1  UNL1       -0.2727
     20 C          63.0889   85.1540    8.6750 C.3     1  UNL1        0.0722
     21 C          62.1756   86.2949    9.0129 C.3     1  UNL1        0.0210
     22 C          62.9885   84.8129    9.8741 C.3     1  UNL1        0.0722
     23 C          62.1626   85.8445   10.1796 C.3     1  UNL1        0.0210
@<TRIPOS>BOND
     1     1     2    2
     2     2    14    1
     3    14    15    1
     4    15    16    1
     5    16    17    1
     6    17    18    1
     7    18    19    1
     8    19    20    1
     9    20    21    1
    10    19    22    1
    11    22    23    1
    12     2     3    1
    13     3     4    2
    14     4     5    1
    15     5     6    2
    16     6     7    1
    17     7     8    1
    18     8     9    1
    19     8    10    2
    20    10    11    1
    21    10    12    1
    22    12    13    2
    23    21    16    1
    24    13     3    1
    25    23    16    1
    26    13     6    1
@<TRIPOS>MOLECULE
*****
 23 26 0 0 0
SMALL
GASTEIGER

@<TRIPOS>ATOM
      1 O          61.8620   84.4848   13.9608 O.2     1  UNL1       -0.2448
      2 C          63.0900   84.3383   13.1120 C.2     1  UNL1        0.3428
      3 C          63.0070   84.5518   11.6296 C.2     1  UNL1        0.0959
      4 C          63.7542   83.7779   10.5842 C.2     1  UNL1        0.1049
      5 N          63.3711   84.3245    9.2409 N.2     1  UNL1       -0.2476
      6 C          62.3872   85.4361    9.4561 C.2     1  UNL1        0.0646
      7 C          61.6672   86.3386    8.4984 C.3     1  UNL1        0.0859
      8 C          60.7220   87.3815    9.0171 C.2     1  UNL1        0.0687
      9 CL         60.0020   88.2840    8.0595 Cl      1  UNL1       -0.0842
     10 C          60.4970   87.5220   10.4935 C.2     1  UNL1        0.1470
     11 F          59.5519   88.5649   11.0122 F       1  UNL1       -0.2036
     12 C          61.2171   86.6195   11.4511 C.2     1  UNL1        0.0316
     13 C          62.1622   85.5766   10.9324 C.2     1  UNL1        0.0239
     14 O          64.4010   83.9783   13.7457 O.3     1  UNL1       -0.4454
     15 C          65.1705   85.0103   14.5158 C.3     1  UNL1        0.2087
     16 C          64.4418   86.1029   15.2404 C.3     1  UNL1        0.0445
     17 C          64.4612   87.5027   14.7017 C.3     1  UNL1        0.0210
     18 C          63.7325   88.5954   15.4264 C.3     1  UNL1        0.0722
     19 N          62.9844   88.2882   16.6897 N.3     1  UNL1       -0.2727
     20 C          62.9650   86.8884   17.2284 C.3     1  UNL1        0.0722
     21 C          63.6937   85.7958   16.5037 C.3     1  UNL1        0.0210
     22 C          63.3688   87.6565   16.3276 C.3     1  UNL1        0.0722
     23 C          64.0276   86.6684   15.6725 C.3     1  UNL1        0.0210
@<TRIPOS>BOND
     1     1     2    2
     2     2    14    1
     3    14    15    1
     4    15    16    1
     5    16    17    1
     6    17    18    1
     7    18    19    1
     8    19    20    1
     9    20    21    1
    10    19    22    1
    11    22    23    1
    12     2     3    1
    13     3     4    2
    14     4     5    1
    15     5     6    2
    16     6     7    1
    17     7     8    1
    18     8     9    1
    19     8    10    2
    20    10    11    1
    21    10    12    1
    22    12    13    2
    23    21    16    1
    24    13     3    1
    25    23    16    1
    26    13     6    1
