@<TRIPOS>MOLECULE
*****
 41 44 0 0 0
SMALL
GASTEIGER

@<TRIPOS>ATOM
      1 C          63.3035   89.7649   12.7473 C.ar    1  UNL1        0.2144
      2 C          62.9856   90.0411   11.3077 C.ar    1  UNL1        0.1822
      3 O          63.6831   91.1559   10.5861 O.2     1  UNL1       -0.4500
      4 C          64.6985   91.9946   11.3043 C.ar    1  UNL1        0.1545
      5 C          65.3959   93.1095   10.5827 C.ar    1  UNL1        0.0744
      6 C          66.4113   93.9481   11.3009 C.ar    1  UNL1        0.1397
      7 O          67.1088   95.0630   10.5793 O.3     1  UNL1       -0.5053
      8 C          66.7291   93.6719   12.7405 C.ar    1  UNL1        0.0735
      9 C          66.0317   92.5571   13.4621 C.ar    1  UNL1        0.1428
     10 O          66.3495   92.2809   14.9018 O.3     1  UNL1       -0.5052
     11 C          65.0163   91.7185   12.7439 C.ar    1  UNL1        0.1104
     12 C          64.3188   90.6036   13.4655 C.ar    1  UNL1        0.2382
     13 O          64.6367   90.3274   14.9052 O.2     1  UNL1       -0.2830
     14 H          66.9102   95.2355    9.6800 H       1  UNL1        0.2922
     15 H          66.9838   92.8048   15.3504 H       1  UNL1        0.2922
     16 C          61.9702   89.2024   10.5895 C.ar    1  UNL1        0.0379
     17 C          62.4175   88.1581    9.6101 C.ar    1  UNL1        0.0062
     18 C          61.4022   87.3195    8.8920 C.ar    1  UNL1        0.0367
     19 C          59.9395   87.5251    9.1534 C.ar    1  UNL1        0.1337
     20 O          58.9241   86.6864    8.4352 O.3     1  UNL1       -0.5055
     21 C          59.4922   88.5695   10.1328 C.ar    1  UNL1        0.0367
     22 C          60.5076   89.4081   10.8508 C.ar    1  UNL1        0.0062
     23 H          59.2036   86.0341    7.8234 H       1  UNL1        0.2922
     24 O          62.6060   88.6500   13.4689 O.3     1  UNL1       -0.4433
     25 C          63.9594   84.3983   12.8852 C.3     1  UNL1        0.2261
     26 C          64.2839   85.1205   14.1592 C.3     1  UNL1        0.1997
     27 O          65.0595   84.4254   15.2386 O.3     1  UNL1       -0.3775
     28 C          63.8327   86.5377   14.3538 C.3     1  UNL1        0.2684
     29 C          63.0571   87.2328   13.2743 C.3     1  UNL1        0.3321
     30 O          62.7326   86.5106   12.0002 O.3     1  UNL1       -0.3165
     31 C          63.1838   85.0934   11.8057 C.3     1  UNL1        0.1614
     32 C          62.8593   84.3712   10.5317 C.3     1  UNL1        0.0361
     33 H          65.2713   83.5225   14.9544 H       1  UNL1        0.2106
     34 O          64.4106   82.9810   12.6906 O.3     1  UNL1       -0.4470
     35 C          62.9742   80.8494   12.3128 C.3     1  UNL1        0.1212
     36 C          63.5927   81.8511   13.2423 C.2     1  UNL1        0.3176
     37 O          63.3933   81.7230   14.7234 O.2     1  UNL1       -0.2501
     38 O          64.1572   87.2599   15.6278 O.3     1  UNL1       -0.4429
     39 C          63.0853   87.4951   16.6505 C.2     1  UNL1        0.3177
     40 C          62.7718   86.4361   17.6655 C.3     1  UNL1        0.1212
     41 O          62.3270   88.7892   16.6582 O.2     1  UNL1       -0.2501
@<TRIPOS>BOND
     1    35    36    1
     2    36    37    2
     3    36    34    1
     4    25    34    1
     5    25    26    1
     6    26    27    1
     7    26    28    1
     8    28    38    1
     9    38    39    1
    10    39    40    1
    11    39    41    2
    12    28    29    1
    13    29    24    1
    14    24     1    1
    15     1     2   ar
    16     2    16    1
    17    16    17   ar
    18    17    18   ar
    19    18    19   ar
    20    19    20    1
    21    19    21   ar
    22    21    22   ar
    23     2     3   ar
    24     3     4   ar
    25     4     5   ar
    26     5     6   ar
    27     6     7    1
    28     6     8   ar
    29     8     9   ar
    30     9    10    1
    31     9    11   ar
    32    11    12   ar
    33    12    13    2
    34    29    30    1
    35    30    31    1
    36    31    32    1
    37    31    25    1
    38    12     1   ar
    39    22    16   ar
    40    11     4   ar
    41    27    33    1
    42    20    23    1
    43     7    14    1
    44    10    15    1
@<TRIPOS>MOLECULE
*****
 41 44 0 0 0
SMALL
GASTEIGER

@<TRIPOS>ATOM
      1 C          62.5810   88.5594   12.1656 C.ar    1  UNL1        0.2144
      2 C          62.3801   89.0404   10.7591 C.ar    1  UNL1        0.1822
      3 O          63.1020   90.2624   10.2740 O.2     1  UNL1       -0.4500
      4 C          64.0250   91.0035   11.1954 C.ar    1  UNL1        0.1545
      5 C          64.7470   92.2255   10.7103 C.ar    1  UNL1        0.0744
      6 C          65.6699   92.9665   11.6317 C.ar    1  UNL1        0.1397
      7 O          66.3920   94.1886   11.1466 O.3     1  UNL1       -0.5053
      8 C          65.8709   92.4856   13.0382 C.ar    1  UNL1        0.0735
      9 C          65.1489   91.2635   13.5233 C.ar    1  UNL1        0.1428
     10 O          65.3498   90.7826   14.9298 O.3     1  UNL1       -0.5052
     11 C          64.2260   90.5225   12.6019 C.ar    1  UNL1        0.1104
     12 C          63.5039   89.3004   13.0870 C.ar    1  UNL1        0.2382
     13 O          63.7049   88.8194   14.4935 O.2     1  UNL1       -0.2830
     14 H          66.2664   94.4891   10.2680 H       1  UNL1        0.2922
     15 H          65.9264   91.2455   15.5054 H       1  UNL1        0.2922
     16 C          61.4571   88.2993    9.8377 C.ar    1  UNL1        0.0379
     17 C          60.0413   88.7626    9.6622 C.ar    1  UNL1        0.0062
     18 C          59.1184   88.0215    8.7408 C.ar    1  UNL1        0.0367
     19 C          59.6113   86.8171    7.9949 C.ar    1  UNL1        0.1337
     20 O          58.6883   86.0759    7.0735 O.3     1  UNL1       -0.5055
     21 C          61.0271   86.3537    8.1703 C.ar    1  UNL1        0.0367
     22 C          61.9500   87.0948    9.0917 C.ar    1  UNL1        0.0062
     23 H          57.8039   86.3654    6.9639 H       1  UNL1        0.2922
     24 O          61.8590   87.3373   12.6507 O.3     1  UNL1       -0.4433
     25 C          63.6163   83.2558   11.9413 C.3     1  UNL1        0.2261
     26 C          63.2494   83.6831   13.3315 C.3     1  UNL1        0.1997
     27 O          63.4682   82.7499   14.4853 O.3     1  UNL1       -0.3775
     28 C          62.6636   85.0436   13.5680 C.3     1  UNL1        0.2684
     29 C          62.4447   85.9768   12.4142 C.3     1  UNL1        0.3321
     30 O          62.8116   85.5495   11.0239 O.3     1  UNL1       -0.3165
     31 C          63.3974   84.1890   10.7874 C.3     1  UNL1        0.1614
     32 C          63.7643   83.7617    9.3972 C.3     1  UNL1        0.0361
     33 H          63.8508   81.9195   14.1614 H       1  UNL1        0.2106
     34 O          64.2020   81.8953   11.7048 O.3     1  UNL1       -0.4470
     35 C          62.6303   80.0327   12.6050 C.3     1  UNL1        0.1212
     36 C          63.2998   80.7235   11.4541 C.2     1  UNL1        0.3176
     37 O          63.0671   80.2425   10.0525 O.2     1  UNL1       -0.2501
     38 O          62.2967   85.4709   14.9582 O.3     1  UNL1       -0.4429
     39 C          63.3727   85.7548   15.9641 C.2     1  UNL1        0.3177
     40 C          63.0172   86.3470   17.2956 C.3     1  UNL1        0.1212
     41 O          64.8041   85.4465   15.6385 O.2     1  UNL1       -0.2501
@<TRIPOS>BOND
     1    35    36    1
     2    36    37    2
     3    36    34    1
     4    25    34    1
     5    25    26    1
     6    26    27    1
     7    26    28    1
     8    28    38    1
     9    38    39    1
    10    39    40    1
    11    39    41    2
    12    28    29    1
    13    29    24    1
    14    24     1    1
    15     1     2   ar
    16     2    16    1
    17    16    17   ar
    18    17    18   ar
    19    18    19   ar
    20    19    20    1
    21    19    21   ar
    22    21    22   ar
    23     2     3   ar
    24     3     4   ar
    25     4     5   ar
    26     5     6   ar
    27     6     7    1
    28     6     8   ar
    29     8     9   ar
    30     9    10    1
    31     9    11   ar
    32    11    12   ar
    33    12    13    2
    34    29    30    1
    35    30    31    1
    36    31    32    1
    37    31    25    1
    38    12     1   ar
    39    22    16   ar
    40    11     4   ar
    41    27    33    1
    42    20    23    1
    43     7    14    1
    44    10    15    1
@<TRIPOS>MOLECULE
*****
 41 44 0 0 0
SMALL
GASTEIGER

@<TRIPOS>ATOM
      1 C          62.4250   87.6664   11.6837 C.ar    1  UNL1        0.2144
      2 C          62.4796   89.1608   11.5673 C.ar    1  UNL1        0.1822
      3 O          61.7570   89.8529   10.4498 O.2     1  UNL1       -0.4500
      4 C          60.9797   89.0506    9.4487 C.ar    1  UNL1        0.1545
      5 C          60.2571   89.7427    8.3313 C.ar    1  UNL1        0.0744
      6 C          59.4798   88.9403    7.3303 C.ar    1  UNL1        0.1397
      7 O          58.7571   89.6324    6.2128 O.3     1  UNL1       -0.5053
      8 C          59.4252   87.4458    7.4468 C.ar    1  UNL1        0.0735
      9 C          60.1478   86.7537    8.5642 C.ar    1  UNL1        0.1428
     10 O          60.0931   85.2592    8.6807 O.3     1  UNL1       -0.5052
     11 C          60.9250   87.5561    9.5652 C.ar    1  UNL1        0.1104
     12 C          61.6477   86.8640   10.6828 C.ar    1  UNL1        0.2382
     13 O          61.5931   85.3695   10.7992 O.2     1  UNL1       -0.2830
     14 H          58.7913   90.5659    6.1400 H       1  UNL1        0.2922
     15 H          59.6076   84.7580    8.0554 H       1  UNL1        0.2922
     16 C          63.2569   89.9632   12.5683 C.ar    1  UNL1        0.0379
     17 C          64.1678   91.0611   12.1049 C.ar    1  UNL1        0.0062
     18 C          64.9451   91.8634   13.1059 C.ar    1  UNL1        0.0367
     19 C          64.8114   91.5678   14.5704 C.ar    1  UNL1        0.1337
     20 O          65.5887   92.3702   15.5715 O.3     1  UNL1       -0.5055
     21 C          63.9006   90.4699   15.0339 C.ar    1  UNL1        0.0367
     22 C          63.1233   89.6676   14.0328 C.ar    1  UNL1        0.0062
     23 H          66.1577   93.0560   15.2820 H       1  UNL1        0.2922
     24 O          63.1476   86.9743   12.8013 O.3     1  UNL1       -0.4433
     25 C          63.6897   82.5081   12.7049 C.3     1  UNL1        0.2261
     26 C          63.1382   83.1703   13.9326 C.3     1  UNL1        0.1997
     27 O          62.7675   82.3438   15.1281 O.3     1  UNL1       -0.3775
     28 C          62.9576   84.6590   13.9647 C.3     1  UNL1        0.2684
     29 C          63.3283   85.4855   12.7692 C.3     1  UNL1        0.3321
     30 O          63.8798   84.8233   11.5414 O.3     1  UNL1       -0.3165
     31 C          64.0604   83.3345   11.5092 C.3     1  UNL1        0.1614
     32 C          64.6119   82.6723   10.2815 C.3     1  UNL1        0.0361
     33 H          62.9453   81.4085   14.9424 H       1  UNL1        0.2106
     34 O          63.8703   81.0193   12.6727 O.3     1  UNL1       -0.4470
     35 C          62.5876   79.3942   11.1032 C.3     1  UNL1        0.1212
     36 C          62.6944   80.1267   12.4078 C.2     1  UNL1        0.3176
     37 O          61.6251   79.9665   13.4475 O.2     1  UNL1       -0.2501
     38 O          62.4061   85.3213   15.1924 O.3     1  UNL1       -0.4429
     39 C          63.3385   85.8744   16.2292 C.2     1  UNL1        0.3177
     40 C          62.8015   86.3337   17.5523 C.3     1  UNL1        0.1212
     41 O          64.8079   85.9682   15.9428 O.2     1  UNL1       -0.2501
@<TRIPOS>BOND
     1    35    36    1
     2    36    37    2
     3    36    34    1
     4    25    34    1
     5    25    26    1
     6    26    27    1
     7    26    28    1
     8    28    38    1
     9    38    39    1
    10    39    40    1
    11    39    41    2
    12    28    29    1
    13    29    24    1
    14    24     1    1
    15     1     2   ar
    16     2    16    1
    17    16    17   ar
    18    17    18   ar
    19    18    19   ar
    20    19    20    1
    21    19    21   ar
    22    21    22   ar
    23     2     3   ar
    24     3     4   ar
    25     4     5   ar
    26     5     6   ar
    27     6     7    1
    28     6     8   ar
    29     8     9   ar
    30     9    10    1
    31     9    11   ar
    32    11    12   ar
    33    12    13    2
    34    29    30    1
    35    30    31    1
    36    31    32    1
    37    31    25    1
    38    12     1   ar
    39    22    16   ar
    40    11     4   ar
    41    27    33    1
    42    20    23    1
    43     7    14    1
    44    10    15    1
@<TRIPOS>MOLECULE
*****
 41 44 0 0 0
SMALL
GASTEIGER

@<TRIPOS>ATOM
      1 C          62.6885   87.1229   12.2184 C.ar    1  UNL1        0.2144
      2 C          62.3079   85.7765   11.6778 C.ar    1  UNL1        0.1822
      3 O          61.4501   85.6758   10.4515 O.2     1  UNL1       -0.4500
      4 C          60.9728   86.9215    9.7656 C.ar    1  UNL1        0.1545
      5 C          60.1150   86.8208    8.5393 C.ar    1  UNL1        0.0744
      6 C          59.6377   88.0666    7.8535 C.ar    1  UNL1        0.1397
      7 O          58.7799   87.9659    6.6271 O.3     1  UNL1       -0.5053
      8 C          60.0183   89.4130    8.3941 C.ar    1  UNL1        0.0735
      9 C          60.8761   89.5137    9.6204 C.ar    1  UNL1        0.1428
     10 O          61.2567   90.8602   10.1610 O.3     1  UNL1       -0.5052
     11 C          61.3534   88.2680   10.3062 C.ar    1  UNL1        0.1104
     12 C          62.2112   88.3687   11.5326 C.ar    1  UNL1        0.2382
     13 O          62.5918   89.7151   12.0732 O.2     1  UNL1       -0.2830
     14 H          58.5421   87.1248    6.2894 H       1  UNL1        0.2922
     15 H          60.9586   91.6384    9.7326 H       1  UNL1        0.2922
     16 C          62.7852   84.5307   12.3637 C.ar    1  UNL1        0.0379
     17 C          63.6819   83.5718   11.6382 C.ar    1  UNL1        0.0062
     18 C          64.1591   82.3261   12.3241 C.ar    1  UNL1        0.0367
     19 C          63.7396   82.0393   13.7354 C.ar    1  UNL1        0.1337
     20 O          64.2169   80.7935   14.4212 O.3     1  UNL1       -0.5055
     21 C          62.8429   82.9982   14.4608 C.ar    1  UNL1        0.0367
     22 C          62.3656   84.2439   13.7750 C.ar    1  UNL1        0.0062
     23 H          64.7771   80.1945   13.9680 H       1  UNL1        0.2922
     24 O          63.5463   87.2236   13.4448 O.3     1  UNL1       -0.4433
     25 C          64.7362   91.2624   15.0329 C.3     1  UNL1        0.2261
     26 C          63.8469   90.3691   15.8459 C.3     1  UNL1        0.1997
     27 O          63.3542   90.8220   17.1883 O.3     1  UNL1       -0.3775
     28 C          63.4503   89.0228   15.3166 C.3     1  UNL1        0.2684
     29 C          63.9429   88.5699   13.9742 C.3     1  UNL1        0.3321
     30 O          64.8323   89.4632   13.1611 O.3     1  UNL1       -0.3165
     31 C          65.2289   90.8095   13.6904 C.3     1  UNL1        0.1614
     32 C          66.1182   91.7028   12.8774 C.3     1  UNL1        0.0361
     33 H          63.7007   91.7080   17.3778 H       1  UNL1        0.2106
     34 O          65.1328   92.6087   15.5623 O.3     1  UNL1       -0.4470
     35 C          67.6125   92.3636   16.2978 C.3     1  UNL1        0.1212
     36 C          66.5623   93.0555   15.4802 C.2     1  UNL1        0.3176
     37 O          66.9417   94.1941   14.5804 O.2     1  UNL1       -0.2501
     38 O          62.5610   88.1295   16.1296 O.3     1  UNL1       -0.4429
     39 C          63.1473   86.9731   16.8840 C.2     1  UNL1        0.3177
     40 C          62.7668   86.7417   18.3164 C.3     1  UNL1        0.1212
     41 O          64.1141   86.0481   16.2060 O.2     1  UNL1       -0.2501
@<TRIPOS>BOND
     1    35    36    1
     2    36    37    2
     3    36    34    1
     4    25    34    1
     5    25    26    1
     6    26    27    1
     7    26    28    1
     8    28    38    1
     9    38    39    1
    10    39    40    1
    11    39    41    2
    12    28    29    1
    13    29    24    1
    14    24     1    1
    15     1     2   ar
    16     2    16    1
    17    16    17   ar
    18    17    18   ar
    19    18    19   ar
    20    19    20    1
    21    19    21   ar
    22    21    22   ar
    23     2     3   ar
    24     3     4   ar
    25     4     5   ar
    26     5     6   ar
    27     6     7    1
    28     6     8   ar
    29     8     9   ar
    30     9    10    1
    31     9    11   ar
    32    11    12   ar
    33    12    13    2
    34    29    30    1
    35    30    31    1
    36    31    32    1
    37    31    25    1
    38    12     1   ar
    39    22    16   ar
    40    11     4   ar
    41    27    33    1
    42    20    23    1
    43     7    14    1
    44    10    15    1
@<TRIPOS>MOLECULE
*****
 41 44 0 0 0
SMALL
GASTEIGER

@<TRIPOS>ATOM
      1 C          63.4876   89.7314   13.5803 C.ar    1  UNL1        0.2144
      2 C          64.3335   89.0033   14.5824 C.ar    1  UNL1        0.1822
      3 O          65.6616   89.5665   14.9931 O.2     1  UNL1       -0.4500
      4 C          66.1440   90.8579   14.4016 C.ar    1  UNL1        0.1545
      5 C          67.4722   91.4211   14.8123 C.ar    1  UNL1        0.0744
      6 C          67.9544   92.7124   14.2209 C.ar    1  UNL1        0.1397
      7 O          69.2827   93.2757   14.6316 O.3     1  UNL1       -0.5053
      8 C          67.1085   93.4406   13.2187 C.ar    1  UNL1        0.0735
      9 C          65.7804   92.8774   12.8080 C.ar    1  UNL1        0.1428
     10 O          64.9344   93.6055   11.8059 O.3     1  UNL1       -0.5052
     11 C          65.2981   91.5860   13.3995 C.ar    1  UNL1        0.1104
     12 C          63.9698   91.0228   12.9888 C.ar    1  UNL1        0.2382
     13 O          63.1239   91.7509   11.9867 O.2     1  UNL1       -0.2830
     14 H          69.8111   92.8209   15.2576 H       1  UNL1        0.2922
     15 H          65.2357   94.4121   11.4364 H       1  UNL1        0.2922
     16 C          63.8511   87.7120   15.1739 C.ar    1  UNL1        0.0379
     17 C          64.0683   86.4228   14.4384 C.ar    1  UNL1        0.0062
     18 C          63.5860   85.1315   15.0299 C.ar    1  UNL1        0.0367
     19 C          62.8865   85.1294   16.3568 C.ar    1  UNL1        0.1337
     20 O          62.4041   83.8380   16.9483 O.3     1  UNL1       -0.5055
     21 C          62.6693   86.4185   17.0923 C.ar    1  UNL1        0.0367
     22 C          63.1517   87.7098   16.5008 C.ar    1  UNL1        0.0062
     23 H          62.5398   83.0327   16.4889 H       1  UNL1        0.2922
     24 O          62.1593   89.1682   13.1696 O.3     1  UNL1       -0.4433
     25 C          61.6813   87.2516    9.1263 C.3     1  UNL1        0.2261
     26 C          61.0870   88.6032    9.3906 C.3     1  UNL1        0.1997
     27 O          60.3333   89.3160    8.3071 O.3     1  UNL1       -0.3775
     28 C          61.2463   89.2421   10.7384 C.3     1  UNL1        0.2684
     29 C          62.0000   88.5293   11.8218 C.3     1  UNL1        0.3321
     30 O          62.5943   87.1776   11.5576 O.3     1  UNL1       -0.3165
     31 C          62.4350   86.5388   10.2098 C.3     1  UNL1        0.1614
     32 C          63.0293   85.1872    9.9455 C.3     1  UNL1        0.0361
     33 H          60.3240   88.7690    7.5061 H       1  UNL1        0.2106
     34 O          61.5220   86.6128    7.7785 O.3     1  UNL1       -0.4470
     35 C          58.9277   86.4906    7.8477 C.3     1  UNL1        0.1212
     36 C          60.2449   85.9079    7.4289 C.2     1  UNL1        0.3176
     37 O          60.2851   84.6204    6.6604 O.2     1  UNL1       -0.2501
     38 O          60.6520   90.5937   11.0027 O.3     1  UNL1       -0.4429
     39 C          59.2994   90.7064   11.6413 C.2     1  UNL1        0.3177
     40 C          58.6990   89.5227   12.3401 C.3     1  UNL1        0.1212
     41 O          58.5473   92.0028   11.5812 O.2     1  UNL1       -0.2501
@<TRIPOS>BOND
     1    35    36    1
     2    36    37    2
     3    36    34    1
     4    25    34    1
     5    25    26    1
     6    26    27    1
     7    26    28    1
     8    28    38    1
     9    38    39    1
    10    39    40    1
    11    39    41    2
    12    28    29    1
    13    29    24    1
    14    24     1    1
    15     1     2   ar
    16     2    16    1
    17    16    17   ar
    18    17    18   ar
    19    18    19   ar
    20    19    20    1
    21    19    21   ar
    22    21    22   ar
    23     2     3   ar
    24     3     4   ar
    25     4     5   ar
    26     5     6   ar
    27     6     7    1
    28     6     8   ar
    29     8     9   ar
    30     9    10    1
    31     9    11   ar
    32    11    12   ar
    33    12    13    2
    34    29    30    1
    35    30    31    1
    36    31    32    1
    37    31    25    1
    38    12     1   ar
    39    22    16   ar
    40    11     4   ar
    41    27    33    1
    42    20    23    1
    43     7    14    1
    44    10    15    1
@<TRIPOS>MOLECULE
*****
 41 44 0 0 0
SMALL
GASTEIGER

@<TRIPOS>ATOM
      1 C          62.3365   87.6048   11.8272 C.ar    1  UNL1        0.2144
      2 C          61.8132   86.7741   10.6932 C.ar    1  UNL1        0.1822
      3 O          62.1345   85.3105   10.6250 O.2     1  UNL1       -0.4500
      4 C          62.9791   84.6775   11.6909 C.ar    1  UNL1        0.1545
      5 C          63.3004   83.2140   11.6227 C.ar    1  UNL1        0.0744
      6 C          64.1449   82.5811   12.6885 C.ar    1  UNL1        0.1397
      7 O          64.4662   81.1174   12.6204 O.3     1  UNL1       -0.5053
      8 C          64.6682   83.4118   13.8226 C.ar    1  UNL1        0.0735
      9 C          64.3469   84.8753   13.8908 C.ar    1  UNL1        0.1428
     10 O          64.8702   85.7060   15.0249 O.3     1  UNL1       -0.5052
     11 C          63.5024   85.5082   12.8249 C.ar    1  UNL1        0.1104
     12 C          63.1811   86.9719   12.8931 C.ar    1  UNL1        0.2382
     13 O          63.7044   87.8026   14.0272 O.2     1  UNL1       -0.2830
     14 H          64.1394   80.5985   11.9120 H       1  UNL1        0.2922
     15 H          65.3978   85.3107   15.6907 H       1  UNL1        0.2922
     16 C          60.9686   87.4070    9.6273 C.ar    1  UNL1        0.0379
     17 C          60.9841   88.8956    9.4434 C.ar    1  UNL1        0.0062
     18 C          60.1396   89.5285    8.3776 C.ar    1  UNL1        0.0367
     19 C          59.2795   88.6728    7.4955 C.ar    1  UNL1        0.1337
     20 O          58.4349   89.3057    6.4296 O.3     1  UNL1       -0.5055
     21 C          59.2639   87.1842    7.6793 C.ar    1  UNL1        0.0367
     22 C          60.1085   86.5513    8.7452 C.ar    1  UNL1        0.0062
     23 H          58.4446   90.2356    6.3148 H       1  UNL1        0.2922
     24 O          62.0152   89.0684   11.8954 O.3     1  UNL1       -0.4433
     25 C          65.2197   92.0260   13.0061 C.3     1  UNL1        0.2261
     26 C          64.3593   91.4165   14.0729 C.3     1  UNL1        0.1997
     27 O          64.5670   91.7929   15.5100 O.3     1  UNL1       -0.3775
     28 C          63.2911   90.4306   13.7027 C.3     1  UNL1        0.2684
     29 C          63.0833   90.0543   12.2656 C.3     1  UNL1        0.3321
     30 O          63.9438   90.6638   11.1987 O.3     1  UNL1       -0.3165
     31 C          65.0119   91.6497   11.5690 C.3     1  UNL1        0.1614
     32 C          65.8723   92.2592   10.5021 C.3     1  UNL1        0.0361
     33 H          65.2907   92.4356   15.5745 H       1  UNL1        0.2106
     34 O          66.2878   93.0119   13.3763 O.3     1  UNL1       -0.4470
     35 C          67.9640   92.6842   15.3342 C.3     1  UNL1        0.1212
     36 C          67.6130   92.5265   13.8844 C.2     1  UNL1        0.3176
     37 O          68.5873   91.8832   12.9426 O.2     1  UNL1       -0.2501
     38 O          62.4307   89.8211   14.7695 O.3     1  UNL1       -0.4429
     39 C          62.9022   89.8019   16.1934 C.2     1  UNL1        0.3177
     40 C          63.2083   88.4959   16.8645 C.3     1  UNL1        0.1212
     41 O          63.0676   91.0888   16.9461 O.2     1  UNL1       -0.2501
@<TRIPOS>BOND
     1    35    36    1
     2    36    37    2
     3    36    34    1
     4    25    34    1
     5    25    26    1
     6    26    27    1
     7    26    28    1
     8    28    38    1
     9    38    39    1
    10    39    40    1
    11    39    41    2
    12    28    29    1
    13    29    24    1
    14    24     1    1
    15     1     2   ar
    16     2    16    1
    17    16    17   ar
    18    17    18   ar
    19    18    19   ar
    20    19    20    1
    21    19    21   ar
    22    21    22   ar
    23     2     3   ar
    24     3     4   ar
    25     4     5   ar
    26     5     6   ar
    27     6     7    1
    28     6     8   ar
    29     8     9   ar
    30     9    10    1
    31     9    11   ar
    32    11    12   ar
    33    12    13    2
    34    29    30    1
    35    30    31    1
    36    31    32    1
    37    31    25    1
    38    12     1   ar
    39    22    16   ar
    40    11     4   ar
    41    27    33    1
    42    20    23    1
    43     7    14    1
    44    10    15    1
@<TRIPOS>MOLECULE
*****
 41 44 0 0 0
SMALL
GASTEIGER

@<TRIPOS>ATOM
      1 C          62.7322   87.5420   11.9603 C.ar    1  UNL1        0.2144
      2 C          61.9212   86.6786   11.0401 C.ar    1  UNL1        0.1822
      3 O          61.8997   85.1911   11.2322 O.2     1  UNL1       -0.4500
      4 C          62.6892   84.5670   12.3446 C.ar    1  UNL1        0.1545
      5 C          62.6677   83.0796   12.5368 C.ar    1  UNL1        0.0744
      6 C          63.4571   82.4556   13.6491 C.ar    1  UNL1        0.1397
      7 O          63.4356   80.9681   13.8413 O.3     1  UNL1       -0.5053
      8 C          64.2680   83.3191   14.5694 C.ar    1  UNL1        0.0735
      9 C          64.2895   84.8065   14.3772 C.ar    1  UNL1        0.1428
     10 O          65.1004   85.6700   15.2975 O.3     1  UNL1       -0.5052
     11 C          63.5001   85.4305   13.2649 C.ar    1  UNL1        0.1104
     12 C          63.5216   86.9180   13.0727 C.ar    1  UNL1        0.2382
     13 O          64.3325   87.7815   13.9929 O.2     1  UNL1       -0.2830
     14 H          62.9290   80.4287   13.2665 H       1  UNL1        0.2922
     15 H          65.5935   85.2802   15.9923 H       1  UNL1        0.2922
     16 C          61.1318   87.3026    9.9276 C.ar    1  UNL1        0.0379
     17 C          60.4542   86.4339    8.9098 C.ar    1  UNL1        0.0062
     18 C          59.6648   87.0579    7.7975 C.ar    1  UNL1        0.0367
     19 C          59.5531   88.5508    7.7029 C.ar    1  UNL1        0.1337
     20 O          58.7636   89.1748    6.5905 O.3     1  UNL1       -0.5055
     21 C          60.2307   89.4195    8.7208 C.ar    1  UNL1        0.0367
     22 C          61.0201   88.7955    9.8331 C.ar    1  UNL1        0.0062
     23 H          58.3403   88.6321    5.9547 H       1  UNL1        0.2922
     24 O          62.7536   89.0296   11.7681 O.3     1  UNL1       -0.4433
     25 C          64.6733   91.6708   14.8647 C.3     1  UNL1        0.2261
     26 C          64.9383   91.9087   13.4076 C.3     1  UNL1        0.1997
     27 O          65.8432   93.0269   12.9827 O.3     1  UNL1       -0.3775
     28 C          64.2984   91.0283   12.3754 C.3     1  UNL1        0.2684
     29 C          63.3935   89.9100   12.8003 C.3     1  UNL1        0.3321
     30 O          63.1285   89.6720   14.2575 O.3     1  UNL1       -0.3165
     31 C          63.7684   90.5524   15.2897 C.3     1  UNL1        0.1614
     32 C          63.5034   90.3145   16.7467 C.3     1  UNL1        0.0361
     33 H          66.1702   93.4942   13.7674 H       1  UNL1        0.2106
     34 O          65.3132   92.5512   15.8969 O.3     1  UNL1       -0.4470
     35 C          67.7925   92.0042   16.4480 C.3     1  UNL1        0.1212
     36 C          66.7713   92.8881   15.7955 C.2     1  UNL1        0.3176
     37 O          67.2082   94.1090   15.0416 O.2     1  UNL1       -0.2501
     38 O          64.5634   91.2661   10.9183 O.3     1  UNL1       -0.4429
     39 C          65.4609   92.3903   10.4930 C.2     1  UNL1        0.3177
     40 C          66.8807   92.1088   10.0998 C.3     1  UNL1        0.1212
     41 O          64.9383   93.7960   10.4609 O.2     1  UNL1       -0.2501
@<TRIPOS>BOND
     1    35    36    1
     2    36    37    2
     3    36    34    1
     4    25    34    1
     5    25    26    1
     6    26    27    1
     7    26    28    1
     8    28    38    1
     9    38    39    1
    10    39    40    1
    11    39    41    2
    12    28    29    1
    13    29    24    1
    14    24     1    1
    15     1     2   ar
    16     2    16    1
    17    16    17   ar
    18    17    18   ar
    19    18    19   ar
    20    19    20    1
    21    19    21   ar
    22    21    22   ar
    23     2     3   ar
    24     3     4   ar
    25     4     5   ar
    26     5     6   ar
    27     6     7    1
    28     6     8   ar
    29     8     9   ar
    30     9    10    1
    31     9    11   ar
    32    11    12   ar
    33    12    13    2
    34    29    30    1
    35    30    31    1
    36    31    32    1
    37    31    25    1
    38    12     1   ar
    39    22    16   ar
    40    11     4   ar
    41    27    33    1
    42    20    23    1
    43     7    14    1
    44    10    15    1
