@<TRIPOS>MOLECULE
*****
 32 36 0 0 0
SMALL
GASTEIGER

@<TRIPOS>ATOM
      1 C          62.7795   86.5046   11.8526 C.2     1  UNL1        0.2506
      2 O          63.4384   87.2521   12.9737 O.2     1  UNL1       -0.2699
      3 N          61.7846   87.1992   10.9707 N.am    1  UNL1       -0.2723
      4 C          61.1256   86.4518    9.8496 C.3     1  UNL1        0.1257
      5 C          60.1307   87.1465    8.9677 C.3     1  UNL1        0.1637
      6 O          59.7949   88.5887    9.2071 O.3     1  UNL1       -0.3502
      7 C          60.4538   89.3362   10.3282 C.3     1  UNL1        0.1622
      8 C          61.4487   88.6415   11.2101 C.3     1  UNL1        0.1096
      9 C          63.8364   81.7639   13.6989 C.3     1  UNL1        0.0327
     10 C          63.6439   82.6921   12.5364 C.ar    1  UNL1       -0.0023
     11 C          63.7872   82.1781   11.1345 C.ar    1  UNL1       -0.0027
     12 C          63.5946   83.1062    9.9720 C.ar    1  UNL1       -0.0001
     13 C          63.2587   84.5483   10.2114 C.ar    1  UNL1        0.0061
     14 C          63.1154   85.0623   11.6132 C.ar    1  UNL1        0.0726
     15 C          63.3079   84.1342   12.7757 C.ar    1  UNL1        0.1032
     16 N          63.1646   84.6483   14.1776 N.ar    1  UNL1       -0.1480
     17 N          64.2619   85.2262   15.0213 N.ar    1  UNL1       -0.1447
     18 C          63.6743   85.6097   16.3471 C.ar    1  UNL1        0.1446
     19 C          62.2137   85.2688   16.3227 C.ar    1  UNL1        0.1446
     20 N          61.8988   84.6746   14.9819 N.ar    1  UNL1       -0.1447
     21 C          62.1077   89.3890   12.3312 C.3     1  UNL1        0.0488
     22 C          63.1618   90.4133   12.0322 C.ar    1  UNL1       -0.0189
     23 C          63.2550   91.0154   10.6615 C.ar    1  UNL1       -0.0041
     24 C          64.3091   92.0398   10.3624 C.ar    1  UNL1        0.0013
     25 C          65.2701   92.4620   11.4339 C.ar    1  UNL1        0.0209
     26 C          65.1769   91.8599   12.8047 C.ar    1  UNL1        0.1026
     27 C          64.1228   90.8355   13.1037 C.ar    1  UNL1        0.0167
     28 N          66.1378   92.2821   13.8762 N.ar    1  UNL1       -0.1478
     29 N          67.6131   92.4923   13.7047 N.ar    1  UNL1       -0.1447
     30 C          68.1793   92.9084   15.0299 C.ar    1  UNL1        0.1446
     31 C          67.0540   92.9553   16.0206 C.ar    1  UNL1        0.1446
     32 N          65.7922   92.5682   15.3076 N.ar    1  UNL1       -0.1447
@<TRIPOS>BOND
     1     9    10    1
     2    10    11   ar
     3    11    12   ar
     4    12    13   ar
     5    13    14   ar
     6    14     1    1
     7     1     2    2
     8     1     3   am
     9     3     4    1
    10     4     5    1
    11     5     6    1
    12     6     7    1
    13     7     8    1
    14     8    21    1
    15    21    22    1
    16    22    23   ar
    17    23    24   ar
    18    24    25   ar
    19    25    26   ar
    20    26    28    1
    21    28    29   ar
    22    29    30   ar
    23    30    31   ar
    24    31    32   ar
    25    26    27   ar
    26    14    15   ar
    27    15    16    1
    28    16    17   ar
    29    17    18   ar
    30    18    19   ar
    31    19    20   ar
    32    15    10   ar
    33    20    16   ar
    34     8     3    1
    35    27    22   ar
    36    32    28   ar
@<TRIPOS>MOLECULE
*****
 32 36 0 0 0
SMALL
GASTEIGER

@<TRIPOS>ATOM
      1 C          63.0633   87.0622   12.3878 C.2     1  UNL1        0.2506
      2 O          63.6484   87.4560   13.7116 O.2     1  UNL1       -0.2699
      3 N          62.4228   88.0985   11.5128 N.am    1  UNL1       -0.2723
      4 C          61.8377   87.7046   10.1889 C.3     1  UNL1        0.1257
      5 C          61.1971   88.7411    9.3139 C.3     1  UNL1        0.1637
      6 O          61.1417   90.1712    9.7627 O.3     1  UNL1       -0.3502
      7 C          61.7269   90.5651   11.0865 C.3     1  UNL1        0.1622
      8 C          62.3674   89.5288   11.9616 C.3     1  UNL1        0.1096
      9 C          63.2562   81.9946   13.5205 C.3     1  UNL1        0.0327
     10 C          63.2152   83.0982   12.5053 C.ar    1  UNL1       -0.0023
     11 C          63.2295   82.7715   11.0414 C.ar    1  UNL1       -0.0027
     12 C          63.1884   83.8750   10.0263 C.ar    1  UNL1       -0.0001
     13 C          63.1330   85.3052   10.4751 C.ar    1  UNL1        0.0061
     14 C          63.1187   85.6319   11.9390 C.ar    1  UNL1        0.0726
     15 C          63.1598   84.5284   12.9541 C.ar    1  UNL1        0.1032
     16 N          63.1454   84.8550   14.4181 N.ar    1  UNL1       -0.1480
     17 N          61.9391   84.8559   15.3095 N.ar    1  UNL1       -0.1447
     18 C          62.3830   85.2396   16.6900 C.ar    1  UNL1        0.1446
     19 C          63.8638   85.4759   16.6517 C.ar    1  UNL1        0.1446
     20 N          64.3350   85.2382   15.2476 N.ar    1  UNL1       -0.1447
     21 C          62.9525   89.9226   13.2854 C.3     1  UNL1        0.0488
     22 C          64.2536   90.6670   13.3386 C.ar    1  UNL1       -0.0189
     23 C          65.1727   90.4879   14.5104 C.ar    1  UNL1       -0.0041
     24 C          66.4739   91.2324   14.5637 C.ar    1  UNL1        0.0013
     25 C          66.8559   92.1559   13.4451 C.ar    1  UNL1        0.0209
     26 C          65.9368   92.3350   12.2733 C.ar    1  UNL1        0.1026
     27 C          64.6357   91.5906   12.2201 C.ar    1  UNL1        0.0167
     28 N          66.3188   93.2585   11.1548 N.ar    1  UNL1       -0.1478
     29 N          65.7578   94.6283   10.9117 N.ar    1  UNL1       -0.1447
     30 C          66.4211   95.1908    9.6896 C.ar    1  UNL1        0.1446
     31 C          67.3922   94.1687    9.1773 C.ar    1  UNL1        0.1446
     32 N          67.3290   92.9744   10.0828 N.ar    1  UNL1       -0.1447
@<TRIPOS>BOND
     1     9    10    1
     2    10    11   ar
     3    11    12   ar
     4    12    13   ar
     5    13    14   ar
     6    14     1    1
     7     1     2    2
     8     1     3   am
     9     3     4    1
    10     4     5    1
    11     5     6    1
    12     6     7    1
    13     7     8    1
    14     8    21    1
    15    21    22    1
    16    22    23   ar
    17    23    24   ar
    18    24    25   ar
    19    25    26   ar
    20    26    28    1
    21    28    29   ar
    22    29    30   ar
    23    30    31   ar
    24    31    32   ar
    25    26    27   ar
    26    14    15   ar
    27    15    16    1
    28    16    17   ar
    29    17    18   ar
    30    18    19   ar
    31    19    20   ar
    32    15    10   ar
    33    20    16   ar
    34     8     3    1
    35    27    22   ar
    36    32    28   ar
@<TRIPOS>MOLECULE
*****
 32 36 0 0 0
SMALL
GASTEIGER

@<TRIPOS>ATOM
      1 C          62.7745   88.5007   11.5551 C.2     1  UNL1        0.2506
      2 O          62.7433   90.0000   11.5231 O.2     1  UNL1       -0.2699
      3 N          63.3841   87.7880   12.7257 N.am    1  UNL1       -0.2723
      4 C          63.4153   86.2887   12.7576 C.3     1  UNL1        0.1257
      5 C          64.0250   85.5760   13.9283 C.3     1  UNL1        0.1637
      6 O          64.6035   86.3626   15.0669 O.3     1  UNL1       -0.3502
      7 C          64.5723   87.8619   15.0350 C.3     1  UNL1        0.1622
      8 C          63.9626   88.5746   13.8644 C.3     1  UNL1        0.1096
      9 C          58.7533   87.3281    8.4800 C.3     1  UNL1        0.0327
     10 C          60.1855   87.1278    8.8789 C.ar    1  UNL1       -0.0023
     11 C          61.0390   86.1408    8.1390 C.ar    1  UNL1       -0.0027
     12 C          62.4711   85.9405    8.5379 C.ar    1  UNL1       -0.0001
     13 C          63.0495   86.7271    9.6765 C.ar    1  UNL1        0.0061
     14 C          62.1959   87.7141   10.4164 C.ar    1  UNL1        0.0726
     15 C          60.7639   87.9144   10.0175 C.ar    1  UNL1        0.1032
     16 N          59.9103   88.9013   10.7574 N.ar    1  UNL1       -0.1480
     17 N          59.1198   88.6248   12.0018 N.ar    1  UNL1       -0.1447
     18 C          58.4183   89.8906   12.3962 C.ar    1  UNL1        0.1446
     19 C          58.7752   90.9495   11.3956 C.ar    1  UNL1        0.1446
     20 N          59.6974   90.3381   10.3827 N.ar    1  UNL1       -0.1447
     21 C          63.9315   90.0740   13.8324 C.3     1  UNL1        0.0488
     22 C          65.2138   90.8497   13.7716 C.ar    1  UNL1       -0.0189
     23 C          66.1536   90.8380   14.9406 C.ar    1  UNL1       -0.0041
     24 C          67.4360   91.6137   14.8799 C.ar    1  UNL1        0.0013
     25 C          67.7787   92.4011   13.6500 C.ar    1  UNL1        0.0209
     26 C          66.8389   92.4128   12.4809 C.ar    1  UNL1        0.1026
     27 C          65.5565   91.6371   12.5417 C.ar    1  UNL1        0.0167
     28 N          67.1815   93.2002   11.2511 N.ar    1  UNL1       -0.1478
     29 N          66.8494   94.6424   11.0065 N.ar    1  UNL1       -0.1447
     30 C          67.3791   95.0172    9.6541 C.ar    1  UNL1        0.1446
     31 C          68.0386   93.8067    9.0628 C.ar    1  UNL1        0.1446
     32 N          67.9165   92.6836   10.0497 N.ar    1  UNL1       -0.1447
@<TRIPOS>BOND
     1     9    10    1
     2    10    11   ar
     3    11    12   ar
     4    12    13   ar
     5    13    14   ar
     6    14     1    1
     7     1     2    2
     8     1     3   am
     9     3     4    1
    10     4     5    1
    11     5     6    1
    12     6     7    1
    13     7     8    1
    14     8    21    1
    15    21    22    1
    16    22    23   ar
    17    23    24   ar
    18    24    25   ar
    19    25    26   ar
    20    26    28    1
    21    28    29   ar
    22    29    30   ar
    23    30    31   ar
    24    31    32   ar
    25    26    27   ar
    26    14    15   ar
    27    15    16    1
    28    16    17   ar
    29    17    18   ar
    30    18    19   ar
    31    19    20   ar
    32    15    10   ar
    33    20    16   ar
    34     8     3    1
    35    27    22   ar
    36    32    28   ar
