@<TRIPOS>MOLECULE
*****
 41 45 0 0 0
SMALL
GASTEIGER

@<TRIPOS>ATOM
      1 C          62.1664   86.9953   10.7555 C.3     1  UNL1        0.1605
      2 F          63.3017   81.9389   10.3760 F       1  UNL1       -0.2041
      3 C          63.2860   83.2106   11.1713 C.ar    1  UNL1        0.1430
      4 C          63.8222   83.2258   12.5720 C.ar    1  UNL1        0.0667
      5 C          63.8064   84.4975   13.3674 C.ar    1  UNL1        0.1462
      6 C          63.2545   85.7540   12.7619 C.ar    1  UNL1        0.0363
      7 C          62.7183   85.7388   11.3610 C.ar    1  UNL1        0.0190
      8 C          62.7340   84.4671   10.5657 C.ar    1  UNL1        0.0289
      9 O          64.3426   84.5127   14.7682 O.3     1  UNL1       -0.4263
     10 C          63.7952   85.4854   15.7703 C.3     1  UNL1        0.4723
     11 F          64.8901   86.4526   15.4297 F       1  UNL1       -0.1579
     12 F          62.7004   84.5183   16.1109 F       1  UNL1       -0.1579
     13 C          63.2478   86.4580   16.7724 C.3     1  UNL1        0.4202
     14 F          63.4357   87.9320   16.5671 F       1  UNL1       -0.1876
     15 F          62.5124   85.9567   17.9799 F       1  UNL1       -0.1876
     16 C          62.0036   86.2905    9.4414 C.ar    1  UNL1        0.0937
     17 C          63.2078   85.7624    8.7194 C.ar    1  UNL1        0.0190
     18 C          63.0451   85.0577    7.4054 C.ar    1  UNL1        0.0143
     19 C          61.6782   84.8809    6.8132 C.ar    1  UNL1        0.0768
     20 CL         61.5156   84.1761    5.4992 Cl      1  UNL1       -0.0806
     21 C          60.4741   85.4089    7.5352 C.ar    1  UNL1        0.1099
     22 N          60.6368   86.1137    8.8494 N.ar    1  UNL1       -0.2439
     23 N          62.3291   87.7000   12.0696 N.pl3   1  UNL1       -0.2174
     24 H          61.9023   87.3369   12.8791 H       1  UNL1        0.2460
     25 C          63.1422   88.9579   12.1504 C.cat   1  UNL1        0.4203
     26 N          63.8657   89.4638   13.3631 N.2     1  UNL1       -0.0679
     27 C          64.5452   90.7494   12.9949 C.2     1  UNL1        0.1910
     28 C          65.4011   91.6944   13.7850 C.2     1  UNL1        0.0691
     29 C          65.9535   92.9282   13.1347 C.2     1  UNL1        0.1393
     30 F          66.8094   93.8733   13.9248 F       1  UNL1       -0.2044
     31 C          65.6500   93.2168   11.6944 C.2     1  UNL1        0.0116
     32 C          64.7941   92.2718   10.9043 C.3     1  UNL1        0.0955
     33 C          64.2417   91.0381   11.5545 C.2     1  UNL1        0.1746
     34 N          63.3745   89.9308   11.0326 N.2     1  UNL1       -0.0718
     35 C          61.6145   88.2517   10.1501 C.3     1  UNL1        0.0705
     36 C          60.4978   88.9852   10.8321 C.ar    1  UNL1       -0.0184
     37 C          59.5866   88.2558   11.7742 C.ar    1  UNL1       -0.0041
     38 C          58.4700   88.9892   12.4562 C.ar    1  UNL1       -0.0003
     39 C          58.2644   90.4522   12.1960 C.ar    1  UNL1       -0.0000
     40 C          59.1756   91.1816   11.2538 C.ar    1  UNL1       -0.0003
     41 C          60.2923   90.4481   10.5718 C.ar    1  UNL1       -0.0041
@<TRIPOS>BOND
     1     2     3    1
     2     3     4   ar
     3     4     5   ar
     4     5     9    1
     5     9    10    1
     6    10    11    1
     7    10    12    1
     8    10    13    1
     9    13    14    1
    10    13    15    1
    11     5     6   ar
    12     6     7   ar
    13     7     1    1
    14     1    35    1
    15    35    36    1
    16    36    37   ar
    17    37    38   ar
    18    38    39   ar
    19    39    40   ar
    20    40    41   ar
    21     1    23    1
    22    23    25    1
    23    25    26    2
    24    26    27    1
    25    27    28    2
    26    28    29    1
    27    29    30    1
    28    29    31    2
    29    31    32    1
    30    32    33    1
    31    33    34    2
    32     1    16    1
    33    16    17   ar
    34    17    18   ar
    35    18    19   ar
    36    19    20    1
    37    19    21   ar
    38    21    22   ar
    39     7     8   ar
    40     8     3   ar
    41    41    36   ar
    42    34    25    1
    43    22    16   ar
    44    33    27    1
    45    23    24    1
@<TRIPOS>MOLECULE
*****
 41 45 0 0 0
SMALL
GASTEIGER

@<TRIPOS>ATOM
      1 C          63.6044   89.8831   12.8572 C.3     1  UNL1        0.1605
      2 F          58.4235   89.6041   13.1419 F       1  UNL1       -0.2041
      3 C          59.6852   89.5435   12.3329 C.ar    1  UNL1        0.1430
      4 C          59.6182   89.2827   10.8573 C.ar    1  UNL1        0.0667
      5 C          60.8799   89.2220   10.0483 C.ar    1  UNL1        0.1462
      6 C          62.2086   89.4222   10.7149 C.ar    1  UNL1        0.0363
      7 C          62.2757   89.6830   12.1906 C.ar    1  UNL1        0.0190
      8 C          61.0140   89.7436   12.9996 C.ar    1  UNL1        0.0289
      9 O          60.8128   88.9612    8.5726 O.3     1  UNL1       -0.4263
     10 C          60.2183   87.6817    8.0634 C.3     1  UNL1        0.4723
     11 F          59.0268   88.4377    7.5546 F       1  UNL1       -0.1579
     12 F          61.4098   86.9257    8.5721 F       1  UNL1       -0.1579
     13 C          59.6238   86.4022    7.5542 C.3     1  UNL1        0.4202
     14 F          58.1359   86.2122    7.5594 F       1  UNL1       -0.1876
     15 F          60.5173   85.3126    7.0397 F       1  UNL1       -0.1876
     16 C          63.6723   88.4160   13.1621 C.ar    1  UNL1        0.0937
     17 C          64.3480   87.9407   14.4142 C.ar    1  UNL1        0.0190
     18 C          64.4160   86.4736   14.7191 C.ar    1  UNL1        0.0143
     19 C          63.8083   85.4817   13.7720 C.ar    1  UNL1        0.0768
     20 CL         63.8763   84.0147   14.0769 Cl      1  UNL1       -0.0806
     21 C          63.1327   85.9570   12.5199 C.ar    1  UNL1        0.1099
     22 N          63.0647   87.4242   12.2150 N.ar    1  UNL1       -0.2439
     23 N          63.5364   91.3502   12.5523 N.pl3   1  UNL1       -0.2174
     24 H          62.7865   91.8896   12.8930 H       1  UNL1        0.2460
     25 C          64.6108   91.9955   11.7282 C.cat   1  UNL1        0.4203
     26 N          64.5687   93.3802   11.1527 N.2     1  UNL1       -0.0679
     27 C          65.8479   93.6099   10.4037 C.2     1  UNL1        0.1910
     28 C          66.3620   94.7901    9.6338 C.2     1  UNL1        0.0691
     29 C          67.7089   94.7276    8.9764 C.2     1  UNL1        0.1393
     30 F          68.2231   95.9078    8.2064 F       1  UNL1       -0.2044
     31 C          68.5415   93.4851    9.0889 C.2     1  UNL1        0.0116
     32 C          68.0274   92.3049    9.8589 C.3     1  UNL1        0.0955
     33 C          66.6806   92.3673   10.5163 C.2     1  UNL1        0.1746
     34 N          65.9160   91.3695   11.3349 N.2     1  UNL1       -0.0718
     35 C          64.9331   90.0833   13.5238 C.3     1  UNL1        0.0705
     36 C          65.0406   90.9655   14.7323 C.ar    1  UNL1       -0.0184
     37 C          66.2789   91.7816   14.9572 C.ar    1  UNL1       -0.0041
     38 C          66.3865   92.6637   16.1656 C.ar    1  UNL1       -0.0003
     39 C          65.2557   92.7298   17.1491 C.ar    1  UNL1       -0.0000
     40 C          64.0175   91.9137   16.9241 C.ar    1  UNL1       -0.0003
     41 C          63.9099   91.0315   15.7156 C.ar    1  UNL1       -0.0041
@<TRIPOS>BOND
     1     2     3    1
     2     3     4   ar
     3     4     5   ar
     4     5     9    1
     5     9    10    1
     6    10    11    1
     7    10    12    1
     8    10    13    1
     9    13    14    1
    10    13    15    1
    11     5     6   ar
    12     6     7   ar
    13     7     1    1
    14     1    35    1
    15    35    36    1
    16    36    37   ar
    17    37    38   ar
    18    38    39   ar
    19    39    40   ar
    20    40    41   ar
    21     1    23    1
    22    23    25    1
    23    25    26    2
    24    26    27    1
    25    27    28    2
    26    28    29    1
    27    29    30    1
    28    29    31    2
    29    31    32    1
    30    32    33    1
    31    33    34    2
    32     1    16    1
    33    16    17   ar
    34    17    18   ar
    35    18    19   ar
    36    19    20    1
    37    19    21   ar
    38    21    22   ar
    39     7     8   ar
    40     8     3   ar
    41    41    36   ar
    42    34    25    1
    43    22    16   ar
    44    33    27    1
    45    23    24    1
@<TRIPOS>MOLECULE
*****
 41 45 0 0 0
SMALL
GASTEIGER

@<TRIPOS>ATOM
      1 C          62.1455   88.1248   11.6811 C.3     1  UNL1        0.1605
      2 F          64.7028   92.4145   10.2462 F       1  UNL1       -0.2041
      3 C          64.3634   91.3926   11.2905 C.ar    1  UNL1        0.1430
      4 C          64.9632   91.4937   12.6616 C.ar    1  UNL1        0.0667
      5 C          64.6238   90.4718   13.7059 C.ar    1  UNL1        0.1462
      6 C          63.6846   89.3489   13.3791 C.ar    1  UNL1        0.0363
      7 C          63.0847   89.2478   12.0079 C.ar    1  UNL1        0.0190
      8 C          63.4242   90.2696   10.9636 C.ar    1  UNL1        0.0289
      9 O          65.2236   90.5730   15.0771 O.3     1  UNL1       -0.4263
     10 C          66.2303   91.6434   15.3782 C.3     1  UNL1        0.4723
     11 F          67.2828   90.8574   14.6539 F       1  UNL1       -0.1579
     12 F          65.1779   92.4294   16.1025 F       1  UNL1       -0.1579
     13 C          67.2370   92.7138   15.6794 C.3     1  UNL1        0.4202
     14 F          68.3203   92.4628   16.6861 F       1  UNL1       -0.1876
     15 F          67.1604   94.0353   14.9738 F       1  UNL1       -0.1876
     16 C          60.9990   89.0917   11.6539 C.ar    1  UNL1        0.0937
     17 C          60.9684   90.1901   10.6328 C.ar    1  UNL1        0.0190
     18 C          59.8220   91.1570   10.6055 C.ar    1  UNL1        0.0143
     19 C          58.7061   91.0255   11.5993 C.ar    1  UNL1        0.0768
     20 CL         57.5597   91.9924   11.5720 Cl      1  UNL1       -0.0806
     21 C          58.7367   89.9272   12.6204 C.ar    1  UNL1        0.1099
     22 N          59.8832   88.9603   12.6476 N.ar    1  UNL1       -0.2439
     23 N          63.2920   87.1580   11.7084 N.pl3   1  UNL1       -0.2174
     24 H          64.1893   87.4504   11.4280 H       1  UNL1        0.2460
     25 C          63.0714   85.7457   12.1630 C.cat   1  UNL1        0.4203
     26 N          63.1508   84.5198   11.3022 N.2     1  UNL1       -0.0679
     27 C          62.8611   83.3277   12.1654 C.2     1  UNL1        0.1910
     28 C          62.7992   81.8600   11.8619 C.2     1  UNL1        0.0691
     29 C          62.4789   80.8815   12.9527 C.2     1  UNL1        0.1393
     30 F          62.4171   79.4138   12.6493 F       1  UNL1       -0.2044
     31 C          62.2205   81.3706   14.3470 C.2     1  UNL1        0.0116
     32 C          62.2824   82.8383   14.6504 C.3     1  UNL1        0.0955
     33 C          62.6027   83.8168   13.5597 C.2     1  UNL1        0.1746
     34 N          62.7326   85.3113   13.5582 N.2     1  UNL1       -0.0718
     35 C          61.2063   87.0019   11.3543 C.3     1  UNL1        0.0705
     36 C          60.7828   86.7674    9.9345 C.ar    1  UNL1       -0.0184
     37 C          59.4479   87.2593    9.4592 C.ar    1  UNL1       -0.0041
     38 C          59.0244   87.0249    8.0394 C.ar    1  UNL1       -0.0003
     39 C          59.9358   86.2986    7.0950 C.ar    1  UNL1       -0.0000
     40 C          61.2707   85.8067    7.5704 C.ar    1  UNL1       -0.0003
     41 C          61.6942   86.0411    8.9902 C.ar    1  UNL1       -0.0041
@<TRIPOS>BOND
     1     2     3    1
     2     3     4   ar
     3     4     5   ar
     4     5     9    1
     5     9    10    1
     6    10    11    1
     7    10    12    1
     8    10    13    1
     9    13    14    1
    10    13    15    1
    11     5     6   ar
    12     6     7   ar
    13     7     1    1
    14     1    35    1
    15    35    36    1
    16    36    37   ar
    17    37    38   ar
    18    38    39   ar
    19    39    40   ar
    20    40    41   ar
    21     1    23    1
    22    23    25    1
    23    25    26    2
    24    26    27    1
    25    27    28    2
    26    28    29    1
    27    29    30    1
    28    29    31    2
    29    31    32    1
    30    32    33    1
    31    33    34    2
    32     1    16    1
    33    16    17   ar
    34    17    18   ar
    35    18    19   ar
    36    19    20    1
    37    19    21   ar
    38    21    22   ar
    39     7     8   ar
    40     8     3   ar
    41    41    36   ar
    42    34    25    1
    43    22    16   ar
    44    33    27    1
    45    23    24    1
@<TRIPOS>MOLECULE
*****
 41 45 0 0 0
SMALL
GASTEIGER

@<TRIPOS>ATOM
      1 C          63.4213   90.5017   14.2622 C.3     1  UNL1        0.1605
      2 F          62.6671   87.7607   18.6117 F       1  UNL1       -0.2041
      3 C          63.1945   87.8549   17.2106 C.ar    1  UNL1        0.1430
      4 C          63.8721   86.6730   16.5832 C.ar    1  UNL1        0.0667
      5 C          64.3995   86.7672   15.1821 C.ar    1  UNL1        0.1462
      6 C          64.2492   88.0434   14.4084 C.ar    1  UNL1        0.0363
      7 C          63.5716   89.2255   15.0358 C.ar    1  UNL1        0.0190
      8 C          63.0442   89.1313   16.4369 C.ar    1  UNL1        0.0289
      9 O          65.0771   85.5851   14.5547 O.3     1  UNL1       -0.4263
     10 C          64.2645   84.4102   14.0974 C.3     1  UNL1        0.4723
     11 F          64.6718   83.6506   15.3251 F       1  UNL1       -0.1579
     12 F          63.8571   85.1698   12.8698 F       1  UNL1       -0.1579
     13 C          63.4518   83.2353   13.6401 C.3     1  UNL1        0.4202
     14 F          62.3811   83.4208   12.6061 F       1  UNL1       -0.1876
     15 F          63.7099   81.8748   14.2168 F       1  UNL1       -0.1876
     16 C          64.7795   90.9411   14.7232 C.ar    1  UNL1        0.0937
     17 C          66.0099   90.3287   14.1223 C.ar    1  UNL1        0.0190
     18 C          67.3680   90.7679   14.5833 C.ar    1  UNL1        0.0143
     19 C          67.4958   91.8197   15.6452 C.ar    1  UNL1        0.0768
     20 CL         68.8539   92.2589   16.1062 Cl      1  UNL1       -0.0806
     21 C          66.2654   92.4320   16.2461 C.ar    1  UNL1        0.1099
     22 N          64.9072   91.9927   15.7851 N.ar    1  UNL1       -0.2439
     23 N          62.0632   90.0624   13.8012 N.pl3   1  UNL1       -0.2174
     24 H          61.2661   90.2876   14.3332 H       1  UNL1        0.2460
     25 C          61.9197   89.2799   12.5296 C.cat   1  UNL1        0.4203
     26 N          62.6959   88.0512   12.1580 N.2     1  UNL1       -0.0679
     27 C          62.2307   87.6005   10.8050 C.2     1  UNL1        0.1910
     28 C          62.6382   86.4478    9.9361 C.2     1  UNL1        0.0691
     29 C          61.9821   86.2451    8.6025 C.2     1  UNL1        0.1393
     30 F          62.3896   85.0924    7.7336 F       1  UNL1       -0.2044
     31 C          60.9185   87.1953    8.1378 C.2     1  UNL1        0.0116
     32 C          60.5110   88.3481    9.0068 C.3     1  UNL1        0.0955
     33 C          61.1670   88.5507   10.3403 C.2     1  UNL1        0.1746
     34 N          60.9749   89.5886   11.4062 N.2     1  UNL1       -0.0718
     35 C          63.2711   91.7780   13.4885 C.3     1  UNL1        0.0705
     36 C          64.2637   92.1285   12.4199 C.ar    1  UNL1       -0.0184
     37 C          64.1295   91.5364   11.0482 C.ar    1  UNL1       -0.0041
     38 C          65.1220   91.8869    9.9796 C.ar    1  UNL1       -0.0003
     39 C          66.2488   92.8296   10.2826 C.ar    1  UNL1       -0.0000
     40 C          66.3830   93.4217   11.6542 C.ar    1  UNL1       -0.0003
     41 C          65.3904   93.0711   12.7229 C.ar    1  UNL1       -0.0041
@<TRIPOS>BOND
     1     2     3    1
     2     3     4   ar
     3     4     5   ar
     4     5     9    1
     5     9    10    1
     6    10    11    1
     7    10    12    1
     8    10    13    1
     9    13    14    1
    10    13    15    1
    11     5     6   ar
    12     6     7   ar
    13     7     1    1
    14     1    35    1
    15    35    36    1
    16    36    37   ar
    17    37    38   ar
    18    38    39   ar
    19    39    40   ar
    20    40    41   ar
    21     1    23    1
    22    23    25    1
    23    25    26    2
    24    26    27    1
    25    27    28    2
    26    28    29    1
    27    29    30    1
    28    29    31    2
    29    31    32    1
    30    32    33    1
    31    33    34    2
    32     1    16    1
    33    16    17   ar
    34    17    18   ar
    35    18    19   ar
    36    19    20    1
    37    19    21   ar
    38    21    22   ar
    39     7     8   ar
    40     8     3   ar
    41    41    36   ar
    42    34    25    1
    43    22    16   ar
    44    33    27    1
    45    23    24    1
@<TRIPOS>MOLECULE
*****
 41 45 0 0 0
SMALL
GASTEIGER

@<TRIPOS>ATOM
      1 C          62.2246   88.0357   11.8359 C.3     1  UNL1        0.1605
      2 F          65.4734   90.2573   15.2285 F       1  UNL1       -0.2041
      3 C          64.7713   90.2698   13.9030 C.ar    1  UNL1        0.1430
      4 C          64.9917   91.4055   12.9483 C.ar    1  UNL1        0.0667
      5 C          64.2897   91.4180   11.6227 C.ar    1  UNL1        0.1462
      6 C          63.3673   90.2948   11.2519 C.ar    1  UNL1        0.0363
      7 C          63.1469   89.1590   12.2067 C.ar    1  UNL1        0.0190
      8 C          63.8490   89.1465   13.5322 C.ar    1  UNL1        0.0289
      9 O          64.5100   92.5538   10.6680 O.3     1  UNL1       -0.4263
     10 C          65.8939   93.0869   10.4432 C.3     1  UNL1        0.4723
     11 F          65.4273   94.4600   10.8266 F       1  UNL1       -0.1579
     12 F          66.3606   91.7139   10.0599 F       1  UNL1       -0.1579
     13 C          67.2778   93.6200   10.2185 C.3     1  UNL1        0.4202
     14 F          68.4349   92.6737   10.0927 F       1  UNL1       -0.1876
     15 F          67.5048   95.0994   10.1195 F       1  UNL1       -0.1876
     16 C          61.0805   89.0023   11.7539 C.ar    1  UNL1        0.0937
     17 C          61.0527   90.0416   10.6726 C.ar    1  UNL1        0.0190
     18 C          59.9087   91.0082   10.5906 C.ar    1  UNL1        0.0143
     19 C          58.7923   90.9356   11.5898 C.ar    1  UNL1        0.0768
     20 CL         57.6482   91.9022   11.5078 Cl      1  UNL1       -0.0806
     21 C          58.8200   89.8963   12.6711 C.ar    1  UNL1        0.1099
     22 N          59.9641   88.9296   12.7531 N.ar    1  UNL1       -0.2439
     23 N          63.3687   87.0692   11.9179 N.pl3   1  UNL1       -0.2174
     24 H          64.2839   87.3716   11.7176 H       1  UNL1        0.2460
     25 C          63.1183   85.6418   12.3050 C.cat   1  UNL1        0.4203
     26 N          63.2714   84.4462   11.4120 N.2     1  UNL1       -0.0679
     27 C          62.9186   83.2248   12.2082 C.2     1  UNL1        0.1910
     28 C          62.8873   81.7683   11.8509 C.2     1  UNL1        0.0691
     29 C          62.4850   80.7525   12.8787 C.2     1  UNL1        0.1393
     30 F          62.4537   79.2960   12.5215 F       1  UNL1       -0.2044
     31 C          62.1139   81.1932   14.2636 C.2     1  UNL1        0.0116
     32 C          62.1452   82.6497   14.6209 C.3     1  UNL1        0.0955
     33 C          62.5475   83.6655   13.5932 C.2     1  UNL1        0.1746
     34 N          62.6710   85.1593   13.6530 N.2     1  UNL1       -0.0718
     35 C          61.3023   86.9125   11.4650 C.3     1  UNL1        0.0705
     36 C          60.8943   86.7181   10.0347 C.ar    1  UNL1       -0.0184
     37 C          59.5562   87.2056    9.5636 C.ar    1  UNL1       -0.0041
     38 C          59.1482   87.0113    8.1333 C.ar    1  UNL1       -0.0003
     39 C          60.0783   86.3294    7.1741 C.ar    1  UNL1       -0.0000
     40 C          61.4163   85.8418    7.6452 C.ar    1  UNL1       -0.0003
     41 C          61.8243   86.0362    9.0755 C.ar    1  UNL1       -0.0041
@<TRIPOS>BOND
     1     2     3    1
     2     3     4   ar
     3     4     5   ar
     4     5     9    1
     5     9    10    1
     6    10    11    1
     7    10    12    1
     8    10    13    1
     9    13    14    1
    10    13    15    1
    11     5     6   ar
    12     6     7   ar
    13     7     1    1
    14     1    35    1
    15    35    36    1
    16    36    37   ar
    17    37    38   ar
    18    38    39   ar
    19    39    40   ar
    20    40    41   ar
    21     1    23    1
    22    23    25    1
    23    25    26    2
    24    26    27    1
    25    27    28    2
    26    28    29    1
    27    29    30    1
    28    29    31    2
    29    31    32    1
    30    32    33    1
    31    33    34    2
    32     1    16    1
    33    16    17   ar
    34    17    18   ar
    35    18    19   ar
    36    19    20    1
    37    19    21   ar
    38    21    22   ar
    39     7     8   ar
    40     8     3   ar
    41    41    36   ar
    42    34    25    1
    43    22    16   ar
    44    33    27    1
    45    23    24    1
@<TRIPOS>MOLECULE
*****
 41 45 0 0 0
SMALL
GASTEIGER

@<TRIPOS>ATOM
      1 C          63.9991   90.9782   14.0993 C.3     1  UNL1        0.1605
      2 F          62.7928   91.3977    9.0625 F       1  UNL1       -0.2041
      3 C          62.7497   90.6273   10.3488 C.ar    1  UNL1        0.1430
      4 C          62.0603   89.2962   10.4031 C.ar    1  UNL1        0.0667
      5 C          62.0172   88.5258   11.6894 C.ar    1  UNL1        0.1462
      6 C          62.6635   89.0864   12.9215 C.ar    1  UNL1        0.0363
      7 C          63.3529   90.4176   12.8672 C.ar    1  UNL1        0.0190
      8 C          63.3960   91.1880   11.5809 C.ar    1  UNL1        0.0289
      9 O          61.3278   87.1947   11.7436 O.3     1  UNL1       -0.4263
     10 C          61.9960   85.9801   11.1707 C.3     1  UNL1        0.4723
     11 F          60.9642   85.9253   10.0833 F       1  UNL1       -0.1579
     12 F          63.0278   86.0348   12.2581 F       1  UNL1       -0.1579
     13 C          62.6642   84.7655   10.5978 C.3     1  UNL1        0.4202
     14 F          63.3855   84.8550    9.2856 F       1  UNL1       -0.1876
     15 F          62.6112   83.4614   11.3371 F       1  UNL1       -0.1876
     16 C          63.8905   89.6387   14.7657 C.ar    1  UNL1        0.0937
     17 C          64.6424   88.4637   14.2145 C.ar    1  UNL1        0.0190
     18 C          64.5338   87.1242   14.8808 C.ar    1  UNL1        0.0143
     19 C          63.6734   86.9598   16.0985 C.ar    1  UNL1        0.0768
     20 CL         63.5648   85.6204   16.7649 Cl      1  UNL1       -0.0806
     21 C          62.9215   88.1349   16.6498 C.ar    1  UNL1        0.1099
     22 N          63.0301   89.4744   15.9833 N.ar    1  UNL1       -0.2439
     23 N          64.1077   92.3176   13.4329 N.pl3   1  UNL1       -0.2174
     24 H          63.4882   93.0419   13.6796 H       1  UNL1        0.2460
     25 C          65.1602   92.5535   12.3905 C.cat   1  UNL1        0.4203
     26 N          66.1122   91.5276   11.8508 N.2     1  UNL1       -0.0679
     27 C          66.9859   92.1968   10.8315 C.2     1  UNL1        0.1910
     28 C          68.1034   91.6813    9.9739 C.2     1  UNL1        0.0691
     29 C          68.8090   92.6054    9.0261 C.2     1  UNL1        0.1393
     30 F          69.9265   92.0899    8.1685 F       1  UNL1       -0.2044
     31 C          68.3970   94.0448    8.9358 C.2     1  UNL1        0.0116
     32 C          67.2795   94.5603    9.7934 C.3     1  UNL1        0.0955
     33 C          66.5739   93.6363   10.7413 C.2     1  UNL1        0.1746
     34 N          65.4456   93.8568   11.7048 N.2     1  UNL1       -0.0718
     35 C          64.6454   91.5389   15.3313 C.3     1  UNL1        0.0705
     36 C          66.0877   91.9500   15.3008 C.ar    1  UNL1       -0.0184
     37 C          66.5298   93.1887   16.0221 C.ar    1  UNL1       -0.0041
     38 C          67.9720   93.5999   15.9916 C.ar    1  UNL1       -0.0003
     39 C          68.9721   92.7724   15.2399 C.ar    1  UNL1       -0.0000
     40 C          68.5300   91.5337   14.5186 C.ar    1  UNL1       -0.0003
     41 C          67.0877   91.1225   14.5491 C.ar    1  UNL1       -0.0041
@<TRIPOS>BOND
     1     2     3    1
     2     3     4   ar
     3     4     5   ar
     4     5     9    1
     5     9    10    1
     6    10    11    1
     7    10    12    1
     8    10    13    1
     9    13    14    1
    10    13    15    1
    11     5     6   ar
    12     6     7   ar
    13     7     1    1
    14     1    35    1
    15    35    36    1
    16    36    37   ar
    17    37    38   ar
    18    38    39   ar
    19    39    40   ar
    20    40    41   ar
    21     1    23    1
    22    23    25    1
    23    25    26    2
    24    26    27    1
    25    27    28    2
    26    28    29    1
    27    29    30    1
    28    29    31    2
    29    31    32    1
    30    32    33    1
    31    33    34    2
    32     1    16    1
    33    16    17   ar
    34    17    18   ar
    35    18    19   ar
    36    19    20    1
    37    19    21   ar
    38    21    22   ar
    39     7     8   ar
    40     8     3   ar
    41    41    36   ar
    42    34    25    1
    43    22    16   ar
    44    33    27    1
    45    23    24    1
@<TRIPOS>MOLECULE
*****
 41 45 0 0 0
SMALL
GASTEIGER

@<TRIPOS>ATOM
      1 C          63.0415   88.9955   12.8152 C.3     1  UNL1        0.1605
      2 F          58.6701   91.6488   11.8927 F       1  UNL1       -0.2041
      3 C          59.7562   90.7293   11.4185 C.ar    1  UNL1        0.1430
      4 C          59.7426   90.2168   10.0088 C.ar    1  UNL1        0.0667
      5 C          60.8287   89.2972    9.5346 C.ar    1  UNL1        0.1462
      6 C          61.9283   88.8901   10.4701 C.ar    1  UNL1        0.0363
      7 C          61.9419   89.4026   11.8798 C.ar    1  UNL1        0.0190
      8 C          60.8559   90.3222   12.3540 C.ar    1  UNL1        0.0289
      9 O          60.8151   88.7847    8.1249 O.3     1  UNL1       -0.4263
     10 C          60.1264   87.4915    7.8036 C.3     1  UNL1        0.4723
     11 F          61.3728   86.7383    8.1630 F       1  UNL1       -0.1579
     12 F          58.8799   88.2446    7.4443 F       1  UNL1       -0.1579
     13 C          59.4376   86.1983    7.4824 C.3     1  UNL1        0.4202
     14 F          57.9516   86.0787    7.6481 F       1  UNL1       -0.1876
     15 F          60.2349   85.0247    6.9954 F       1  UNL1       -0.1876
     16 C          63.8321   90.2049   12.4121 C.ar    1  UNL1        0.0937
     17 C          64.7556   90.8595   13.3964 C.ar    1  UNL1        0.0190
     18 C          65.5461   92.0689   12.9933 C.ar    1  UNL1        0.0143
     19 C          65.4132   92.6237   11.6060 C.ar    1  UNL1        0.0768
     20 CL         66.2038   93.8330   11.2030 Cl      1  UNL1       -0.0806
     21 C          64.4898   91.9691   10.6218 C.ar    1  UNL1        0.1099
     22 N          63.6992   90.7597   11.0249 N.ar    1  UNL1       -0.2439
     23 N          62.2510   87.7862   13.2183 N.pl3   1  UNL1       -0.2174
     24 H          61.5446   87.8645   13.8995 H       1  UNL1        0.2460
     25 C          62.5367   86.4576   12.5834 C.cat   1  UNL1        0.4203
     26 N          62.2828   85.1134   13.1989 N.2     1  UNL1       -0.0679
     27 C          62.7157   84.0649   12.2174 C.2     1  UNL1        0.1910
     28 C          62.7024   82.5662   12.2786 C.2     1  UNL1        0.0691
     29 C          63.2106   81.7637   11.1176 C.2     1  UNL1        0.1393
     30 F          63.1974   80.2650   11.1788 F       1  UNL1       -0.2044
     31 C          63.7321   82.4598    9.8956 C.2     1  UNL1        0.0116
     32 C          63.7453   83.9585    9.8344 C.3     1  UNL1        0.0955
     33 C          63.2372   84.7611   10.9953 C.2     1  UNL1        0.1746
     34 N          63.1265   86.2399   11.2215 N.2     1  UNL1       -0.0718
     35 C          64.1411   88.5885   13.7507 C.3     1  UNL1        0.0705
     36 C          63.8081   87.9587   15.0708 C.ar    1  UNL1       -0.0184
     37 C          64.0959   86.5048   15.3019 C.ar    1  UNL1       -0.0041
     38 C          63.7629   85.8750   16.6219 C.ar    1  UNL1       -0.0003
     39 C          63.1421   86.6991   17.7108 C.ar    1  UNL1       -0.0000
     40 C          62.8544   88.1530   17.4796 C.ar    1  UNL1       -0.0003
     41 C          63.1874   88.7828   16.1596 C.ar    1  UNL1       -0.0041
@<TRIPOS>BOND
     1     2     3    1
     2     3     4   ar
     3     4     5   ar
     4     5     9    1
     5     9    10    1
     6    10    11    1
     7    10    12    1
     8    10    13    1
     9    13    14    1
    10    13    15    1
    11     5     6   ar
    12     6     7   ar
    13     7     1    1
    14     1    35    1
    15    35    36    1
    16    36    37   ar
    17    37    38   ar
    18    38    39   ar
    19    39    40   ar
    20    40    41   ar
    21     1    23    1
    22    23    25    1
    23    25    26    2
    24    26    27    1
    25    27    28    2
    26    28    29    1
    27    29    30    1
    28    29    31    2
    29    31    32    1
    30    32    33    1
    31    33    34    2
    32     1    16    1
    33    16    17   ar
    34    17    18   ar
    35    18    19   ar
    36    19    20    1
    37    19    21   ar
    38    21    22   ar
    39     7     8   ar
    40     8     3   ar
    41    41    36   ar
    42    34    25    1
    43    22    16   ar
    44    33    27    1
    45    23    24    1
@<TRIPOS>MOLECULE
*****
 41 45 0 0 0
SMALL
GASTEIGER

@<TRIPOS>ATOM
      1 C          62.2407   86.2655   10.8547 C.3     1  UNL1        0.1605
      2 F          58.4389   89.5289   12.2320 F       1  UNL1       -0.2041
      3 C          59.4353   89.0490   11.2187 C.ar    1  UNL1        0.1430
      4 C          59.5273   89.7208    9.8807 C.ar    1  UNL1        0.0667
      5 C          60.5237   89.2408    8.8674 C.ar    1  UNL1        0.1462
      6 C          61.4282   88.0891    9.1920 C.ar    1  UNL1        0.0363
      7 C          61.3362   87.4172   10.5301 C.ar    1  UNL1        0.0190
      8 C          60.3398   87.8972   11.5434 C.ar    1  UNL1        0.0289
      9 O          60.6157   89.9127    7.5294 O.3     1  UNL1       -0.4263
     10 C          59.3845   90.0835    6.6897 C.3     1  UNL1        0.4723
     11 F          60.0405   91.2170    5.9583 F       1  UNL1       -0.1579
     12 F          58.7285   88.9500    7.4211 F       1  UNL1       -0.1579
     13 C          58.1534   90.2543    5.8501 C.3     1  UNL1        0.4202
     14 F          58.2327   90.9852    4.5426 F       1  UNL1       -0.1876
     15 F          56.8428   89.6941    6.3179 F       1  UNL1       -0.1876
     16 C          62.0890   85.7516    9.4536 C.ar    1  UNL1        0.0937
     17 C          63.2765   85.1932    8.7269 C.ar    1  UNL1        0.0190
     18 C          63.1249   84.6793    7.3259 C.ar    1  UNL1        0.0143
     19 C          61.7858   84.7237    6.6515 C.ar    1  UNL1        0.0768
     20 CL         61.6342   84.2098    5.2505 Cl      1  UNL1       -0.0806
     21 C          60.5983   85.2820    7.3782 C.ar    1  UNL1        0.1099
     22 N          60.7499   85.7960    8.7793 N.ar    1  UNL1       -0.2439
     23 N          62.3923   86.7794   12.2557 N.pl3   1  UNL1       -0.2174
     24 H          62.0148   86.2715   13.0099 H       1  UNL1        0.2460
     25 C          63.1190   88.0672   12.5076 C.cat   1  UNL1        0.4203
     26 N          63.1986   89.2332   11.5672 N.2     1  UNL1       -0.0679
     27 C          64.0225   90.3018   12.2224 C.2     1  UNL1        0.1910
     28 C          64.4371   91.6698   11.7679 C.2     1  UNL1        0.0691
     29 C          65.2812   92.5324   12.6587 C.2     1  UNL1        0.1393
     30 F          65.6958   93.9004   12.2042 F       1  UNL1       -0.2044
     31 C          65.7107   92.0269   14.0041 C.2     1  UNL1        0.0116
     32 C          65.2961   90.6588   14.4586 C.3     1  UNL1        0.0955
     33 C          64.4521   89.7963   13.5678 C.2     1  UNL1        0.1746
     34 N          63.8936   88.4152   13.7440 N.2     1  UNL1       -0.0718
     35 C          63.1451   85.1138   11.1793 C.3     1  UNL1        0.0705
     36 C          62.7523   84.1271   12.2388 C.ar    1  UNL1       -0.0184
     37 C          62.4607   82.7035   11.8667 C.ar    1  UNL1       -0.0041
     38 C          62.0679   81.7169   12.9261 C.ar    1  UNL1       -0.0003
     39 C          61.9668   82.1538   14.3575 C.ar    1  UNL1       -0.0000
     40 C          62.2584   83.5774   14.7295 C.ar    1  UNL1       -0.0003
     41 C          62.6512   84.5640   13.6701 C.ar    1  UNL1       -0.0041
@<TRIPOS>BOND
     1     2     3    1
     2     3     4   ar
     3     4     5   ar
     4     5     9    1
     5     9    10    1
     6    10    11    1
     7    10    12    1
     8    10    13    1
     9    13    14    1
    10    13    15    1
    11     5     6   ar
    12     6     7   ar
    13     7     1    1
    14     1    35    1
    15    35    36    1
    16    36    37   ar
    17    37    38   ar
    18    38    39   ar
    19    39    40   ar
    20    40    41   ar
    21     1    23    1
    22    23    25    1
    23    25    26    2
    24    26    27    1
    25    27    28    2
    26    28    29    1
    27    29    30    1
    28    29    31    2
    29    31    32    1
    30    32    33    1
    31    33    34    2
    32     1    16    1
    33    16    17   ar
    34    17    18   ar
    35    18    19   ar
    36    19    20    1
    37    19    21   ar
    38    21    22   ar
    39     7     8   ar
    40     8     3   ar
    41    41    36   ar
    42    34    25    1
    43    22    16   ar
    44    33    27    1
    45    23    24    1
@<TRIPOS>MOLECULE
*****
 41 45 0 0 0
SMALL
GASTEIGER

@<TRIPOS>ATOM
      1 C          62.5723   89.2392   11.6851 C.3     1  UNL1        0.1605
      2 F          62.8402   90.4420   16.7331 F       1  UNL1       -0.2041
      3 C          63.1847   89.5268   15.5957 C.ar    1  UNL1        0.1430
      4 C          64.0077   88.2977   15.8449 C.ar    1  UNL1        0.0667
      5 C          64.3522   87.3825   14.7075 C.ar    1  UNL1        0.1462
      6 C          63.8737   87.6963   13.3209 C.ar    1  UNL1        0.0363
      7 C          63.0507   88.9254   13.0717 C.ar    1  UNL1        0.0190
      8 C          62.7062   89.8406   14.2091 C.ar    1  UNL1        0.0289
      9 O          65.1752   86.1534   14.9567 O.3     1  UNL1       -0.4263
     10 C          64.5060   84.8182   15.0959 C.3     1  UNL1        0.4723
     11 F          63.9634   85.2293   16.4325 F       1  UNL1       -0.1579
     12 F          65.0486   84.4070   13.7593 F       1  UNL1       -0.1579
     13 C          63.8368   83.4830   15.2350 C.3     1  UNL1        0.4202
     14 F          62.4710   83.3888   15.8478 F       1  UNL1       -0.1876
     15 F          64.5335   82.2419   14.7613 F       1  UNL1       -0.1876
     16 C          63.5456   90.3779   11.6071 C.ar    1  UNL1        0.0937
     17 C          63.5905   91.2435   10.3828 C.ar    1  UNL1        0.0190
     18 C          64.5637   92.3822   10.3047 C.ar    1  UNL1        0.0143
     19 C          65.4920   92.6555   11.4509 C.ar    1  UNL1        0.0768
     20 CL         66.4652   93.7942   11.3728 Cl      1  UNL1       -0.0806
     21 C          65.4470   91.7899   12.6752 C.ar    1  UNL1        0.1099
     22 N          64.4738   90.6511   12.7532 N.ar    1  UNL1       -0.2439
     23 N          61.5991   88.1004   11.7632 N.pl3   1  UNL1       -0.2174
     24 H          60.6436   88.2793   11.9193 H       1  UNL1        0.2460
     25 C          62.0817   86.6892   11.6036 C.cat   1  UNL1        0.4203
     26 N          61.6805   85.5189   12.4518 N.2     1  UNL1       -0.0679
     27 C          62.4010   84.3068   11.9402 C.2     1  UNL1        0.1910
     28 C          62.3957   82.8741   12.3842 C.2     1  UNL1        0.0691
     29 C          63.2369   81.8625   11.6636 C.2     1  UNL1        0.1393
     30 F          63.2315   80.4297   12.1076 F       1  UNL1       -0.2044
     31 C          64.0834   82.2837   10.4992 C.2     1  UNL1        0.0116
     32 C          64.0887   83.7164   10.0552 C.3     1  UNL1        0.0955
     33 C          63.2476   84.7280   10.7757 C.2     1  UNL1        0.1746
     34 N          63.0502   86.2004   10.5676 N.2     1  UNL1       -0.0718
     35 C          62.0939   89.5529   10.2986 C.3     1  UNL1        0.0705
     36 C          61.2259   88.5738    9.5651 C.ar    1  UNL1       -0.0184
     37 C          59.7327   88.7034    9.6253 C.ar    1  UNL1       -0.0041
     38 C          58.8647   87.7243    8.8918 C.ar    1  UNL1       -0.0003
     39 C          59.4899   86.6155    8.0982 C.ar    1  UNL1       -0.0000
     40 C          60.9831   86.4859    8.0381 C.ar    1  UNL1       -0.0003
     41 C          61.8511   87.4650    8.7715 C.ar    1  UNL1       -0.0041
@<TRIPOS>BOND
     1     2     3    1
     2     3     4   ar
     3     4     5   ar
     4     5     9    1
     5     9    10    1
     6    10    11    1
     7    10    12    1
     8    10    13    1
     9    13    14    1
    10    13    15    1
    11     5     6   ar
    12     6     7   ar
    13     7     1    1
    14     1    35    1
    15    35    36    1
    16    36    37   ar
    17    37    38   ar
    18    38    39   ar
    19    39    40   ar
    20    40    41   ar
    21     1    23    1
    22    23    25    1
    23    25    26    2
    24    26    27    1
    25    27    28    2
    26    28    29    1
    27    29    30    1
    28    29    31    2
    29    31    32    1
    30    32    33    1
    31    33    34    2
    32     1    16    1
    33    16    17   ar
    34    17    18   ar
    35    18    19   ar
    36    19    20    1
    37    19    21   ar
    38    21    22   ar
    39     7     8   ar
    40     8     3   ar
    41    41    36   ar
    42    34    25    1
    43    22    16   ar
    44    33    27    1
    45    23    24    1
