@<TRIPOS>MOLECULE
*****
 66 73 0 0 0
SMALL
GASTEIGER

@<TRIPOS>ATOM
      1 N          58.6983   95.1399   -5.6442 N.3     1  UNL1       -0.1862
      2 C          59.8115   95.1613   -6.6493 C.3     1  UNL1        0.1775
      3 C          61.2298   95.3372   -6.1940 C.2     1  UNL1        0.2452
      4 O          62.3430   95.3587   -7.1992 O.2     1  UNL1       -0.2732
      5 N          61.5350   95.4916   -4.7335 N.am    1  UNL1       -0.2541
      6 C          62.9534   95.6675   -4.2782 C.3     1  UNL1        0.1577
      7 C          63.2585   95.8218   -2.8177 C.2     1  UNL1        0.2445
      8 O          64.6769   95.9977   -2.3624 O.2     1  UNL1       -0.2731
      9 N          62.1453   95.8004   -1.8125 N.am    1  UNL1       -0.2705
     10 C          60.7270   95.6245   -2.2678 C.3     1  UNL1        0.1359
     11 C          60.4218   95.4701   -3.7284 C.3     1  UNL1        0.1908
     12 N          59.0035   95.2942   -4.1837 N.am    1  UNL1       -0.1863
     13 C          57.8903   95.2728   -3.1785 C.2     1  UNL1        0.3191
     14 O          58.1954   95.4272   -1.7181 O.2     1  UNL1       -0.2512
     15 N          56.4719   95.0969   -3.6338 N.am    1  UNL1       -0.2836
     16 H          56.2716   94.9956   -4.5924 H       1  UNL1        0.1513
     17 C          57.2799   94.9640   -6.0995 C.3     1  UNL1        0.1188
     18 C          57.5132   92.4078   -6.5013 C.2     1  UNL1       -0.0034
     19 C          56.8788   93.7237   -6.8416 C.2     1  UNL1       -0.0071
     20 C          64.0665   95.6889   -5.2833 C.3     1  UNL1        0.0556
     21 C          64.6094   94.4014   -5.8289 C.ar    1  UNL1       -0.0198
     22 C          65.6154   94.4232   -6.9412 C.ar    1  UNL1       -0.0011
     23 C          66.1583   93.1357   -7.4868 C.ar    1  UNL1        0.0363
     24 C          65.6951   91.8264   -6.9200 C.ar    1  UNL1        0.1337
     25 O          66.2379   90.5389   -7.4656 O.3     1  UNL1       -0.5055
     26 C          64.6890   91.8046   -5.8076 C.ar    1  UNL1        0.0363
     27 C          64.1461   93.0921   -5.2620 C.ar    1  UNL1       -0.0011
     28 H          66.8664   90.5525   -8.1604 H       1  UNL1        0.2922
     29 C          62.4505   95.9548   -0.3521 C.3     1  UNL1        0.1217
     30 C          62.8035   94.7518    0.4717 C.ar    1  UNL1        0.0135
     31 C          64.1355   94.0855    0.2936 C.ar    1  UNL1       -0.0012
     32 C          64.4884   92.8826    1.1173 C.ar    1  UNL1       -0.0002
     33 C          63.5094   92.3461    2.1190 C.ar    1  UNL1        0.0016
     34 C          62.1774   93.0125    2.2971 C.ar    1  UNL1        0.0214
     35 C          61.0175   92.7121    3.1995 C.ar    1  UNL1        0.0722
     36 C          59.9477   93.7293    2.9336 C.ar    1  UNL1        0.0805
     37 N          60.4464   94.6583    1.8668 N.ar    1  UNL1       -0.3241
     38 C          59.6984   95.8255    1.2939 C.3     1  UNL1        0.1305
     39 C          61.8244   94.2153    1.4735 C.ar    1  UNL1        0.0577
     40 C          60.9408   91.5912    4.1935 C.2     1  UNL1        0.2510
     41 O          61.9920   90.5211    4.1997 O.2     1  UNL1       -0.2698
     42 N          59.8130   91.5404    5.1811 N.am    1  UNL1       -0.2791
     43 H          59.1231   92.2427    5.1770 H       1  UNL1        0.1552
     44 C          59.7363   90.4196    6.1750 C.ar    1  UNL1        0.0701
     45 C          60.5311   90.4880    7.4453 C.ar    1  UNL1        0.0191
     46 C          60.4545   89.3672    8.4393 C.ar    1  UNL1        0.0354
     47 C          59.5831   88.1780    8.1630 C.ar    1  UNL1        0.1286
     48 N          58.7883   88.1096    6.8927 N.ar    1  UNL1       -0.2281
     49 C          58.8649   89.2303    5.8987 C.ar    1  UNL1        0.1149
     50 N          59.5064   87.0572    9.1569 N.pl3   1  UNL1       -0.3181
     51 H          58.8827   86.3100    9.0090 H       1  UNL1        0.1482
     52 C          60.3801   87.0749   10.3761 C.3     1  UNL1        0.0896
     53 C          61.7294   86.4206   10.3415 C.3     1  UNL1        0.0385
     54 C          62.2475   85.7056   11.5541 C.3     1  UNL1        0.0738
     55 N          63.0823   84.4695   11.3962 N.3     1  UNL1       -0.2726
     56 C          63.5081   83.8530   10.0966 C.3     1  UNL1        0.0721
     57 C          64.3269   82.6353   10.4075 C.3     1  UNL1        0.0188
     58 C          64.4072   82.4990   11.8992 C.3     1  UNL1        0.0188
     59 C          63.6380   83.6327   12.5102 C.3     1  UNL1        0.0721
     60 C          55.3587   95.0754   -2.6287 C.3     1  UNL1        0.1177
     61 C          53.9981   95.5820   -3.0056 C.ar    1  UNL1       -0.0025
     62 C          52.9227   95.6883   -1.9653 C.ar    1  UNL1       -0.0026
     63 C          51.5621   96.1949   -2.3421 C.ar    1  UNL1       -0.0003
     64 C          51.2768   96.5951   -3.7592 C.ar    1  UNL1       -0.0000
     65 C          52.3521   96.4888   -4.7996 C.ar    1  UNL1       -0.0003
     66 C          53.7128   95.9823   -4.4228 C.ar    1  UNL1       -0.0026
@<TRIPOS>BOND
     1    18    19    2
     2    19    17    1
     3    17     1    1
     4     1     2    1
     5     2     3    1
     6     3     4    2
     7     3     5   am
     8     5     6    1
     9     6    20    1
    10    20    21    1
    11    21    22   ar
    12    22    23   ar
    13    23    24   ar
    14    24    25    1
    15    24    26   ar
    16    26    27   ar
    17     6     7    1
    18     7     8    2
    19     7     9   am
    20     9    29    1
    21    29    30    1
    22    30    31   ar
    23    31    32   ar
    24    32    33   ar
    25    33    34   ar
    26    34    35   ar
    27    35    40    1
    28    40    41    2
    29    40    42   am
    30    42    44    1
    31    44    45   ar
    32    45    46   ar
    33    46    47   ar
    34    47    50    1
    35    50    52    1
    36    52    53    1
    37    53    54    1
    38    54    55    1
    39    55    56    1
    40    56    57    1
    41    57    58    1
    42    58    59    1
    43    47    48   ar
    44    48    49   ar
    45    35    36   ar
    46    36    37   ar
    47    37    38    1
    48    37    39   ar
    49     9    10    1
    50    10    11    1
    51    11    12    1
    52    12    13   am
    53    13    14    2
    54    13    15   am
    55    15    60    1
    56    60    61    1
    57    61    62   ar
    58    62    63   ar
    59    63    64   ar
    60    64    65   ar
    61    65    66   ar
    62    12     1    1
    63    66    61   ar
    64    11     5    1
    65    27    21   ar
    66    39    30   ar
    67    39    34   ar
    68    49    44   ar
    69    59    55    1
    70    25    28    1
    71    42    43    1
    72    50    51    1
    73    15    16    1
