@<TRIPOS>MOLECULE
*****
 40 46 0 0 0
SMALL
GASTEIGER

@<TRIPOS>ATOM
      1 C          62.4150   87.2726   11.6464 C.ar    1  UNL1        0.0722
      2 C          62.8469   88.7074   11.5774 C.ar    1  UNL1        0.0808
      3 N          63.7834   88.9651   12.7204 N.ar    1  UNL1       -0.3191
      4 C          63.9302   87.6895   13.4959 C.ar    1  UNL1        0.0764
      5 C          63.0846   86.6435   12.8321 C.ar    1  UNL1        0.0231
      6 C          62.9347   85.2186   13.2761 C.ar    1  UNL1        0.0016
      7 C          62.4357   84.9118   14.6570 C.ar    1  UNL1        0.0001
      8 C          62.2859   83.4868   15.1010 C.ar    1  UNL1        0.0000
      9 C          62.6351   82.3687   14.1640 C.ar    1  UNL1        0.0000
     10 C          63.1341   82.6755   12.7831 C.ar    1  UNL1        0.0000
     11 C          63.4833   81.5573   11.8462 C.ar    1  UNL1        0.0000
     12 C          63.9822   81.8641   10.4653 C.ar    1  UNL1        0.0000
     13 C          64.1321   83.2891   10.0213 C.ar    1  UNL1        0.0000
     14 C          63.7829   84.4072   10.9582 C.ar    1  UNL1        0.0000
     15 C          63.2839   84.1004   12.3392 C.ar    1  UNL1        0.0000
     16 C          58.7723   89.7300    6.3604 C.3     1  UNL1        0.0897
     17 N          59.4488   88.9443    7.4444 N.3     1  UNL1       -0.2686
     18 C          60.3857   89.6297    8.3943 C.3     1  UNL1        0.0939
     19 C          61.0622   88.8440    9.4784 C.3     1  UNL1        0.1110
     20 N          60.8016   87.3729    9.6125 N.am    1  UNL1       -0.2732
     21 C          61.4780   86.5872   10.6965 C.2     1  UNL1        0.2506
     22 O          60.9998   85.1738   10.5425 O.2     1  UNL1       -0.2699
     23 C          59.8646   86.6875    8.6626 C.3     1  UNL1        0.1110
     24 C          59.1882   87.4732    7.5785 C.3     1  UNL1        0.0939
     25 C          64.4550   90.2694   13.0332 C.3     1  UNL1        0.1515
     26 C          64.3779   90.8396   14.4184 C.ar    1  UNL1        0.0809
     27 C          63.2357   90.6759   15.3769 C.ar    1  UNL1        0.1153
     28 N          63.5813   91.4087   16.6392 N.ar    1  UNL1       -0.2226
     29 C          64.9370   92.0253   16.4609 C.ar    1  UNL1        0.1786
     30 N          65.4293   91.6735   15.0884 N.ar    1  UNL1       -0.3065
     31 C          66.7426   92.0838   14.4908 C.3     1  UNL1        0.1341
     32 C          66.7840   92.7072   13.1271 C.ar    1  UNL1        0.0036
     33 C          67.3808   91.9535   11.9758 C.ar    1  UNL1        0.0009
     34 C          67.4222   92.5768   10.6121 C.ar    1  UNL1        0.0399
     35 C          66.8667   93.9539   10.3998 C.ar    1  UNL1        0.1764
     36 C          66.2699   94.7076   11.5511 C.ar    1  UNL1        0.1762
     37 C          66.2285   94.0842   12.9148 C.ar    1  UNL1        0.0378
     38 O          65.8031   96.0390   11.0415 O.3     1  UNL1       -0.4346
     39 C          66.1115   96.1081    9.5752 C.3     1  UNL1        0.4294
     40 O          66.7689   94.8194    9.1786 O.3     1  UNL1       -0.4346
@<TRIPOS>BOND
     1    16    17    1
     2    17    18    1
     3    18    19    1
     4    19    20    1
     5    20    21   am
     6    21    22    2
     7    21     1    1
     8     1     2   ar
     9     2     3   ar
    10     3    25    1
    11    25    26    1
    12    26    27   ar
    13    27    28   ar
    14    28    29   ar
    15    29    30   ar
    16    30    31    1
    17    31    32    1
    18    32    33   ar
    19    33    34   ar
    20    34    35   ar
    21    35    36   ar
    22    36    37   ar
    23    36    38    1
    24    38    39    1
    25    39    40    1
    26     3     4   ar
    27     4     5   ar
    28     5     6    1
    29     6     7   ar
    30     7     8   ar
    31     8     9   ar
    32     9    10   ar
    33    10    11   ar
    34    11    12   ar
    35    12    13   ar
    36    13    14   ar
    37    14    15   ar
    38    20    23    1
    39    23    24    1
    40    24    17    1
    41     5     1   ar
    42    15     6   ar
    43    30    26   ar
    44    37    32   ar
    45    15    10   ar
    46    40    35    1
@<TRIPOS>MOLECULE
*****
 40 46 0 0 0
SMALL
GASTEIGER

@<TRIPOS>ATOM
      1 C          62.5954   89.3073   12.9251 C.ar    1  UNL1        0.0722
      2 C          61.8795   90.0203   11.8164 C.ar    1  UNL1        0.0808
      3 N          61.7602   89.0746   10.6582 N.ar    1  UNL1       -0.3191
      4 C          62.4023   87.7772   11.0512 C.ar    1  UNL1        0.0764
      5 C          62.9185   87.9210   12.4522 C.ar    1  UNL1        0.0231
      6 C          63.6324   86.8641   13.2417 C.ar    1  UNL1        0.0016
      7 C          64.4657   87.2488   14.4282 C.ar    1  UNL1        0.0001
      8 C          65.1796   86.1919   15.2176 C.ar    1  UNL1        0.0000
      9 C          65.0602   84.7502   14.8207 C.ar    1  UNL1        0.0000
     10 C          64.2269   84.3656   13.6343 C.ar    1  UNL1        0.0000
     11 C          64.1074   82.9240   13.2373 C.ar    1  UNL1        0.0000
     12 C          63.2741   82.5393   12.0509 C.ar    1  UNL1        0.0000
     13 C          62.5602   83.5962   11.2614 C.ar    1  UNL1        0.0000
     14 C          62.6796   85.0378   11.6583 C.ar    1  UNL1        0.0000
     15 C          63.5130   85.4225   12.8448 C.ar    1  UNL1        0.0000
     16 C          67.5473   93.6657   14.8571 C.3     1  UNL1        0.0897
     17 N          66.3928   92.7193   14.7104 N.3     1  UNL1       -0.2686
     18 C          66.0589   92.1465   13.3650 C.3     1  UNL1        0.0939
     19 C          64.9043   91.2001   13.2183 C.3     1  UNL1        0.1110
     20 N          64.0838   90.8265   14.4173 N.am    1  UNL1       -0.2732
     21 C          62.9294   89.8802   14.2706 C.2     1  UNL1        0.2506
     22 O          62.3412   89.7299   15.6423 O.2     1  UNL1       -0.2699
     23 C          64.4179   91.3993   15.7627 C.3     1  UNL1        0.1110
     24 C          65.5724   92.3457   15.9093 C.3     1  UNL1        0.0939
     25 C          61.1126   89.3737    9.3388 C.3     1  UNL1        0.1515
     26 C          60.4660   88.2713    8.5535 C.ar    1  UNL1        0.0809
     27 C          60.8207   86.8154    8.6212 C.ar    1  UNL1        0.1153
     28 N          59.9252   86.0755    7.6723 N.ar    1  UNL1       -0.2226
     29 C          59.0170   87.0741    7.0180 C.ar    1  UNL1        0.1786
     30 N          59.3513   88.4311    7.5627 N.ar    1  UNL1       -0.3065
     31 C          58.6873   89.7215    7.1831 C.3     1  UNL1        0.1341
     32 C          59.1918   90.5078    6.0095 C.ar    1  UNL1        0.0036
     33 C          58.2445   91.3509    5.2085 C.ar    1  UNL1        0.0009
     34 C          58.7490   92.1371    4.0350 C.ar    1  UNL1        0.0399
     35 C          60.2009   92.0802    3.6624 C.ar    1  UNL1        0.1764
     36 C          61.1482   91.2371    4.4634 C.ar    1  UNL1        0.1762
     37 C          60.6436   90.4508    5.6370 C.ar    1  UNL1        0.0378
     38 O          62.5152   91.3770    3.8619 O.3     1  UNL1       -0.4346
     39 C          62.4127   92.3066    2.6892 C.3     1  UNL1        0.4294
     40 O          60.9823   92.7412    2.5659 O.3     1  UNL1       -0.4346
@<TRIPOS>BOND
     1    16    17    1
     2    17    18    1
     3    18    19    1
     4    19    20    1
     5    20    21   am
     6    21    22    2
     7    21     1    1
     8     1     2   ar
     9     2     3   ar
    10     3    25    1
    11    25    26    1
    12    26    27   ar
    13    27    28   ar
    14    28    29   ar
    15    29    30   ar
    16    30    31    1
    17    31    32    1
    18    32    33   ar
    19    33    34   ar
    20    34    35   ar
    21    35    36   ar
    22    36    37   ar
    23    36    38    1
    24    38    39    1
    25    39    40    1
    26     3     4   ar
    27     4     5   ar
    28     5     6    1
    29     6     7   ar
    30     7     8   ar
    31     8     9   ar
    32     9    10   ar
    33    10    11   ar
    34    11    12   ar
    35    12    13   ar
    36    13    14   ar
    37    14    15   ar
    38    20    23    1
    39    23    24    1
    40    24    17    1
    41     5     1   ar
    42    15     6   ar
    43    30    26   ar
    44    37    32   ar
    45    15    10   ar
    46    40    35    1
@<TRIPOS>MOLECULE
*****
 40 46 0 0 0
SMALL
GASTEIGER

@<TRIPOS>ATOM
      1 C          63.6363   90.3269   13.8710 C.ar    1  UNL1        0.0722
      2 C          63.4663   90.7402   12.4391 C.ar    1  UNL1        0.0808
      3 N          62.9944   89.5454   11.6647 N.ar    1  UNL1       -0.3191
      4 C          62.8729   88.3936   12.6180 C.ar    1  UNL1        0.0764
      5 C          63.2696   88.8766   13.9816 C.ar    1  UNL1        0.0231
      6 C          63.2950   88.0538   15.2355 C.ar    1  UNL1        0.0016
      7 C          62.7971   88.6364   16.5250 C.ar    1  UNL1        0.0001
      8 C          62.8226   87.8136   17.7790 C.ar    1  UNL1        0.0000
      9 C          63.3460   86.4082   17.7434 C.ar    1  UNL1        0.0000
     10 C          63.8439   85.8258   16.4539 C.ar    1  UNL1        0.0000
     11 C          64.3673   84.4205   16.4184 C.ar    1  UNL1        0.0000
     12 C          64.8652   83.8380   15.1289 C.ar    1  UNL1        0.0000
     13 C          64.8397   84.6608   13.8749 C.ar    1  UNL1        0.0000
     14 C          64.3163   86.0660   13.9105 C.ar    1  UNL1        0.0000
     15 C          63.8184   86.6486   15.2000 C.ar    1  UNL1        0.0000
     16 C          69.7539   93.1919   15.1427 C.3     1  UNL1        0.0897
     17 N          68.3386   92.6961   15.1058 N.3     1  UNL1       -0.2686
     18 C          67.8821   91.8140   13.9818 C.3     1  UNL1        0.0939
     19 C          66.4668   91.3183   13.9448 C.3     1  UNL1        0.1110
     20 N          65.5082   91.7047   15.0320 N.am    1  UNL1       -0.2732
     21 C          64.0930   91.2090   14.9950 C.2     1  UNL1        0.2506
     22 O          63.4243   91.7764   16.2120 O.2     1  UNL1       -0.2699
     23 C          65.9648   92.5868   16.1560 C.3     1  UNL1        0.1110
     24 C          67.3800   93.0825   16.1929 C.3     1  UNL1        0.0939
     25 C          62.6965   89.5087   10.1951 C.3     1  UNL1        0.1515
     26 C          61.5662   88.6679    9.6797 C.ar    1  UNL1        0.0809
     27 C          60.1305   89.0894    9.5746 C.ar    1  UNL1        0.1153
     28 N          59.3502   87.9400    9.0089 N.ar    1  UNL1       -0.2226
     29 C          60.3037   86.8081    8.7644 C.ar    1  UNL1        0.1786
     30 N          61.6732   87.2580    9.1790 N.ar    1  UNL1       -0.3065
     31 C          62.9293   86.4413    9.1057 C.3     1  UNL1        0.1341
     32 C          63.0267   85.1462    9.8562 C.ar    1  UNL1        0.0036
     33 C          63.8018   84.0001    9.2769 C.ar    1  UNL1        0.0009
     34 C          63.8993   82.7051   10.0273 C.ar    1  UNL1        0.0399
     35 C          63.2216   82.5561   11.3572 C.ar    1  UNL1        0.1764
     36 C          62.4465   83.7022   11.9365 C.ar    1  UNL1        0.1762
     37 C          62.3491   84.9973   11.1860 C.ar    1  UNL1        0.0378
     38 O          61.8884   83.2634   13.2579 O.3     1  UNL1       -0.4346
     39 C          62.3185   81.8462   13.4952 C.3     1  UNL1        0.4294
     40 O          63.1425   81.4090   12.3205 O.3     1  UNL1       -0.4346
@<TRIPOS>BOND
     1    16    17    1
     2    17    18    1
     3    18    19    1
     4    19    20    1
     5    20    21   am
     6    21    22    2
     7    21     1    1
     8     1     2   ar
     9     2     3   ar
    10     3    25    1
    11    25    26    1
    12    26    27   ar
    13    27    28   ar
    14    28    29   ar
    15    29    30   ar
    16    30    31    1
    17    31    32    1
    18    32    33   ar
    19    33    34   ar
    20    34    35   ar
    21    35    36   ar
    22    36    37   ar
    23    36    38    1
    24    38    39    1
    25    39    40    1
    26     3     4   ar
    27     4     5   ar
    28     5     6    1
    29     6     7   ar
    30     7     8   ar
    31     8     9   ar
    32     9    10   ar
    33    10    11   ar
    34    11    12   ar
    35    12    13   ar
    36    13    14   ar
    37    14    15   ar
    38    20    23    1
    39    23    24    1
    40    24    17    1
    41     5     1   ar
    42    15     6   ar
    43    30    26   ar
    44    37    32   ar
    45    15    10   ar
    46    40    35    1
@<TRIPOS>MOLECULE
*****
 40 46 0 0 0
SMALL
GASTEIGER

@<TRIPOS>ATOM
      1 C          63.3133   89.2772   12.7939 C.ar    1  UNL1        0.0722
      2 C          63.1993   87.9804   13.5392 C.ar    1  UNL1        0.0808
      3 N          64.3397   87.9023   14.5105 N.ar    1  UNL1       -0.3191
      4 C          65.1585   89.1507   14.3654 C.ar    1  UNL1        0.0764
      5 C          64.5241   90.0005   13.3045 C.ar    1  UNL1        0.0231
      6 C          65.0144   91.3385   12.8364 C.ar    1  UNL1        0.0016
      7 C          64.6486   91.8350   11.4689 C.ar    1  UNL1        0.0001
      8 C          65.1390   93.1731   11.0008 C.ar    1  UNL1        0.0000
      9 C          65.9951   94.0147   11.9001 C.ar    1  UNL1        0.0000
     10 C          66.3609   93.5182   13.2675 C.ar    1  UNL1        0.0000
     11 C          67.2171   94.3599   14.1668 C.ar    1  UNL1        0.0000
     12 C          67.5828   93.8634   15.5342 C.ar    1  UNL1        0.0000
     13 C          67.0925   92.5254   16.0023 C.ar    1  UNL1        0.0000
     14 C          66.2364   91.6837   15.1030 C.ar    1  UNL1        0.0000
     15 C          65.8706   92.1802   13.7356 C.ar    1  UNL1        0.0000
     16 C          60.2013   85.9247    7.6630 C.3     1  UNL1        0.0897
     17 N          60.7460   86.8848    8.6787 N.3     1  UNL1       -0.2686
     18 C          61.6791   86.3969    9.7469 C.3     1  UNL1        0.0939
     19 C          62.2239   87.3570   10.7626 C.3     1  UNL1        0.1110
     20 N          61.8354   88.8050   10.7099 N.am    1  UNL1       -0.2732
     21 C          62.3802   89.7649   11.7255 C.2     1  UNL1        0.2506
     22 O          61.7969   91.1039   11.3833 O.2     1  UNL1       -0.2699
     23 C          60.9023   89.2927    9.6415 C.3     1  UNL1        0.1110
     24 C          60.3576   88.3326    8.6259 C.3     1  UNL1        0.0939
     25 C          64.6134   86.7739   15.4601 C.3     1  UNL1        0.1515
     26 C          63.6343   85.6443   15.5847 C.ar    1  UNL1        0.0809
     27 C          62.4925   85.5702   16.5547 C.ar    1  UNL1        0.1153
     28 N          61.7777   84.2706   16.3307 N.ar    1  UNL1       -0.2226
     29 C          62.4776   83.5416   15.2223 C.ar    1  UNL1        0.1786
     30 N          63.6251   84.3906   14.7612 N.ar    1  UNL1       -0.3065
     31 C          64.5933   84.0463   13.6685 C.3     1  UNL1        0.1341
     32 C          64.2004   83.0721   12.5977 C.ar    1  UNL1        0.0036
     33 C          64.3555   83.4432   11.1526 C.ar    1  UNL1        0.0009
     34 C          63.9625   82.4691   10.0818 C.ar    1  UNL1        0.0399
     35 C          63.4145   81.1239   10.4561 C.ar    1  UNL1        0.1764
     36 C          63.2594   80.7529   11.9012 C.ar    1  UNL1        0.1762
     37 C          63.6523   81.7270   12.9720 C.ar    1  UNL1        0.0378
     38 O          62.6947   79.3647   11.9652 O.3     1  UNL1       -0.4346
     39 C          62.5008   78.8777   10.5598 C.3     1  UNL1        0.4294
     40 O          62.9457   79.9651    9.6271 O.3     1  UNL1       -0.4346
@<TRIPOS>BOND
     1    16    17    1
     2    17    18    1
     3    18    19    1
     4    19    20    1
     5    20    21   am
     6    21    22    2
     7    21     1    1
     8     1     2   ar
     9     2     3   ar
    10     3    25    1
    11    25    26    1
    12    26    27   ar
    13    27    28   ar
    14    28    29   ar
    15    29    30   ar
    16    30    31    1
    17    31    32    1
    18    32    33   ar
    19    33    34   ar
    20    34    35   ar
    21    35    36   ar
    22    36    37   ar
    23    36    38    1
    24    38    39    1
    25    39    40    1
    26     3     4   ar
    27     4     5   ar
    28     5     6    1
    29     6     7   ar
    30     7     8   ar
    31     8     9   ar
    32     9    10   ar
    33    10    11   ar
    34    11    12   ar
    35    12    13   ar
    36    13    14   ar
    37    14    15   ar
    38    20    23    1
    39    23    24    1
    40    24    17    1
    41     5     1   ar
    42    15     6   ar
    43    30    26   ar
    44    37    32   ar
    45    15    10   ar
    46    40    35    1
@<TRIPOS>MOLECULE
*****
 40 46 0 0 0
SMALL
GASTEIGER

@<TRIPOS>ATOM
      1 C          62.4830   87.6140   11.4425 C.ar    1  UNL1        0.0722
      2 C          63.3515   88.5192   12.2649 C.ar    1  UNL1        0.0808
      3 N          63.3772   89.8646   11.6022 N.ar    1  UNL1       -0.3191
      4 C          62.5245   89.7909   10.3703 C.ar    1  UNL1        0.0764
      5 C          61.9719   88.4000   10.2716 C.ar    1  UNL1        0.0231
      6 C          61.0670   87.8853    9.1916 C.ar    1  UNL1        0.0016
      7 C          59.7480   88.5528    8.9370 C.ar    1  UNL1        0.0001
      8 C          58.8431   88.0382    7.8570 C.ar    1  UNL1        0.0000
      9 C          59.2573   86.8560    7.0316 C.ar    1  UNL1        0.0000
     10 C          60.5762   86.1886    7.2863 C.ar    1  UNL1        0.0000
     11 C          60.9904   85.0065    6.4610 C.ar    1  UNL1        0.0000
     12 C          62.3093   84.3390    6.7156 C.ar    1  UNL1        0.0000
     13 C          63.2142   84.8537    7.7956 C.ar    1  UNL1        0.0000
     14 C          62.8001   86.0357    8.6209 C.ar    1  UNL1        0.0000
     15 C          61.4811   86.7032    8.3663 C.ar    1  UNL1        0.0000
     16 C          64.8830   83.4228   16.3337 C.3     1  UNL1        0.0897
     17 N          64.2070   84.1110   15.1849 N.3     1  UNL1       -0.2686
     18 C          64.5111   85.5495   14.8885 C.3     1  UNL1        0.0939
     19 C          63.8350   86.2378   13.7398 C.3     1  UNL1        0.1110
     20 N          62.8549   85.4872   12.8876 N.am    1  UNL1       -0.2732
     21 C          62.1789   86.1754   11.7390 C.2     1  UNL1        0.2506
     22 O          61.2799   85.1501   11.1140 O.2     1  UNL1       -0.2699
     23 C          62.5509   84.0486   13.1841 C.3     1  UNL1        0.1110
     24 C          63.2269   83.3604   14.3328 C.3     1  UNL1        0.0939
     25 C          64.1243   91.0718   12.0864 C.3     1  UNL1        0.1515
     26 C          64.3769   91.2592   13.5531 C.ar    1  UNL1        0.0809
     27 C          63.3889   91.0184   14.6558 C.ar    1  UNL1        0.1153
     28 N          64.0632   91.3305   15.9587 N.ar    1  UNL1       -0.2226
     29 C          65.4680   91.7643   15.6614 C.ar    1  UNL1        0.1786
     30 N          65.6618   91.7202   14.1746 N.ar    1  UNL1       -0.3065
     31 C          66.9199   92.0748   13.4386 C.3     1  UNL1        0.1341
     32 C          66.8528   92.9266   12.2057 C.ar    1  UNL1        0.0036
     33 C          67.4262   92.4232   10.9143 C.ar    1  UNL1        0.0009
     34 C          67.3591   93.2749    9.6814 C.ar    1  UNL1        0.0399
     35 C          66.7185   94.6300    9.7400 C.ar    1  UNL1        0.1764
     36 C          66.1451   95.1333   11.0314 C.ar    1  UNL1        0.1762
     37 C          66.2122   94.2816   12.2643 C.ar    1  UNL1        0.0378
     38 O          65.5793   96.5006   10.7856 O.3     1  UNL1       -0.4346
     39 C          65.8031   96.8423    9.3423 C.3     1  UNL1        0.4294
     40 O          66.5072   95.6861    8.6960 O.3     1  UNL1       -0.4346
@<TRIPOS>BOND
     1    16    17    1
     2    17    18    1
     3    18    19    1
     4    19    20    1
     5    20    21   am
     6    21    22    2
     7    21     1    1
     8     1     2   ar
     9     2     3   ar
    10     3    25    1
    11    25    26    1
    12    26    27   ar
    13    27    28   ar
    14    28    29   ar
    15    29    30   ar
    16    30    31    1
    17    31    32    1
    18    32    33   ar
    19    33    34   ar
    20    34    35   ar
    21    35    36   ar
    22    36    37   ar
    23    36    38    1
    24    38    39    1
    25    39    40    1
    26     3     4   ar
    27     4     5   ar
    28     5     6    1
    29     6     7   ar
    30     7     8   ar
    31     8     9   ar
    32     9    10   ar
    33    10    11   ar
    34    11    12   ar
    35    12    13   ar
    36    13    14   ar
    37    14    15   ar
    38    20    23    1
    39    23    24    1
    40    24    17    1
    41     5     1   ar
    42    15     6   ar
    43    30    26   ar
    44    37    32   ar
    45    15    10   ar
    46    40    35    1
@<TRIPOS>MOLECULE
*****
 40 46 0 0 0
SMALL
GASTEIGER

@<TRIPOS>ATOM
      1 C          63.6318   90.2543   11.7200 C.ar    1  UNL1        0.0722
      2 C          64.4159   90.1269   12.9924 C.ar    1  UNL1        0.0808
      3 N          63.9541   88.8870   13.6992 N.ar    1  UNL1       -0.3191
      4 C          62.8847   88.2482   12.8635 C.ar    1  UNL1        0.0764
      5 C          62.6855   89.0932   11.6403 C.ar    1  UNL1        0.0231
      6 C          61.7111   88.8244   10.5321 C.ar    1  UNL1        0.0016
      7 C          60.6158   89.8074   10.2415 C.ar    1  UNL1        0.0001
      8 C          59.6414   89.5385    9.1332 C.ar    1  UNL1        0.0000
      9 C          59.7622   88.2868    8.3155 C.ar    1  UNL1        0.0000
     10 C          60.8574   87.3039    8.6061 C.ar    1  UNL1        0.0000
     11 C          60.9783   86.0521    7.7884 C.ar    1  UNL1        0.0000
     12 C          62.0735   85.0693    8.0790 C.ar    1  UNL1        0.0000
     13 C          63.0479   85.3381    9.1873 C.ar    1  UNL1        0.0000
     14 C          62.9271   86.5898   10.0050 C.ar    1  UNL1        0.0000
     15 C          61.8318   87.5727    9.7144 C.ar    1  UNL1        0.0000
     16 C          66.9486   96.2678   12.0150 C.3     1  UNL1        0.0897
     17 N          66.1539   95.0384   11.6876 N.3     1  UNL1       -0.2686
     18 C          66.0159   93.9424   12.7023 C.3     1  UNL1        0.0939
     19 C          65.2212   92.7130   12.3749 C.3     1  UNL1        0.1110
     20 N          64.5645   92.5797   11.0327 N.am    1  UNL1       -0.2732
     21 C          63.7699   91.3504   10.7054 C.2     1  UNL1        0.2506
     22 O          63.2631   91.5460    9.3072 O.2     1  UNL1       -0.2699
     23 C          64.7026   93.6759   10.0181 C.3     1  UNL1        0.1110
     24 C          65.4973   94.9052   10.3455 C.3     1  UNL1        0.0939
     25 C          64.4709   88.3757   15.0112 C.3     1  UNL1        0.1515
     26 C          63.6650   87.3874   15.8010 C.ar    1  UNL1        0.0809
     27 C          62.5999   87.7192   16.8037 C.ar    1  UNL1        0.1153
     28 N          62.0593   86.4307   17.3492 N.ar    1  UNL1       -0.2226
     29 C          62.7903   85.3026   16.6836 C.ar    1  UNL1        0.1786
     30 N          63.7827   85.8939   15.7268 N.ar    1  UNL1       -0.3065
     31 C          64.7270   85.1263   14.8497 C.3     1  UNL1        0.1341
     32 C          64.2221   83.9761   14.0300 C.ar    1  UNL1        0.0036
     33 C          64.1788   84.0830   12.5344 C.ar    1  UNL1        0.0009
     34 C          63.6739   82.9328   11.7146 C.ar    1  UNL1        0.0399
     35 C          63.2122   81.6758   12.3904 C.ar    1  UNL1        0.1764
     36 C          63.2555   81.5689   13.8860 C.ar    1  UNL1        0.1762
     37 C          63.7605   82.7191   14.7057 C.ar    1  UNL1        0.0378
     38 O          62.7381   80.2141   14.2690 O.3     1  UNL1       -0.4346
     39 C          62.3751   79.4836   13.0103 C.3     1  UNL1        0.4294
     40 O          62.6681   80.3870   11.8492 O.3     1  UNL1       -0.4346
@<TRIPOS>BOND
     1    16    17    1
     2    17    18    1
     3    18    19    1
     4    19    20    1
     5    20    21   am
     6    21    22    2
     7    21     1    1
     8     1     2   ar
     9     2     3   ar
    10     3    25    1
    11    25    26    1
    12    26    27   ar
    13    27    28   ar
    14    28    29   ar
    15    29    30   ar
    16    30    31    1
    17    31    32    1
    18    32    33   ar
    19    33    34   ar
    20    34    35   ar
    21    35    36   ar
    22    36    37   ar
    23    36    38    1
    24    38    39    1
    25    39    40    1
    26     3     4   ar
    27     4     5   ar
    28     5     6    1
    29     6     7   ar
    30     7     8   ar
    31     8     9   ar
    32     9    10   ar
    33    10    11   ar
    34    11    12   ar
    35    12    13   ar
    36    13    14   ar
    37    14    15   ar
    38    20    23    1
    39    23    24    1
    40    24    17    1
    41     5     1   ar
    42    15     6   ar
    43    30    26   ar
    44    37    32   ar
    45    15    10   ar
    46    40    35    1
@<TRIPOS>MOLECULE
*****
 40 46 0 0 0
SMALL
GASTEIGER

@<TRIPOS>ATOM
      1 C          61.7517   88.2532   10.9023 C.ar    1  UNL1        0.0722
      2 C          62.0491   89.7232   10.9270 C.ar    1  UNL1        0.0808
      3 N          63.1900   89.9494   11.8743 N.ar    1  UNL1       -0.3191
      4 C          63.5976   88.6192   12.4349 C.ar    1  UNL1        0.0764
      5 C          62.7087   87.5708   11.8342 C.ar    1  UNL1        0.0231
      6 C          62.7667   86.0987   12.1160 C.ar    1  UNL1        0.0016
      7 C          62.2830   85.1188   11.0884 C.ar    1  UNL1        0.0001
      8 C          62.3410   83.6466   11.3702 C.ar    1  UNL1        0.0000
      9 C          62.8827   83.1544   12.6795 C.ar    1  UNL1        0.0000
     10 C          63.3664   84.1343   13.7070 C.ar    1  UNL1        0.0000
     11 C          63.9081   83.6420   15.0164 C.ar    1  UNL1        0.0000
     12 C          64.3917   84.6219   16.0439 C.ar    1  UNL1        0.0000
     13 C          64.3338   86.0941   15.7621 C.ar    1  UNL1        0.0000
     14 C          63.7921   86.5863   14.4529 C.ar    1  UNL1        0.0000
     15 C          63.3084   85.6064   13.4253 C.ar    1  UNL1        0.0000
     16 C          62.2003   84.0080    5.5146 C.3     1  UNL1        0.0897
     17 N          61.8214   84.9018    6.6582 N.3     1  UNL1       -0.2686
     18 C          62.8886   85.5718    7.4719 C.3     1  UNL1        0.0939
     19 C          62.5096   86.4656    8.6154 C.3     1  UNL1        0.1110
     20 N          61.0635   86.6894    8.9451 N.am    1  UNL1       -0.2732
     21 C          60.6846   87.5831   10.0885 C.2     1  UNL1        0.2506
     22 O          59.1853   87.5818   10.1350 O.2     1  UNL1       -0.2699
     23 C          59.9963   86.0193    8.1313 C.3     1  UNL1        0.1110
     24 C          60.3753   85.1255    6.9878 C.3     1  UNL1        0.0939
     25 C          63.8137   91.2734   12.2031 C.3     1  UNL1        0.1515
     26 C          64.5073   91.4696   13.5185 C.ar    1  UNL1        0.0809
     27 C          63.8899   91.2996   14.8749 C.ar    1  UNL1        0.1153
     28 N          64.9412   91.5952   15.9032 N.ar    1  UNL1       -0.2226
     29 C          66.2084   91.9480   15.1823 C.ar    1  UNL1        0.1786
     30 N          65.9402   91.8704   13.7085 N.ar    1  UNL1       -0.3065
     31 C          66.9312   92.1452   12.6164 C.3     1  UNL1        0.1341
     32 C          66.7849   93.3691   11.7616 C.ar    1  UNL1        0.0036
     33 C          66.2610   94.6420   12.3576 C.ar    1  UNL1        0.0009
     34 C          66.1147   95.8658   11.5029 C.ar    1  UNL1        0.0399
     35 C          66.4925   95.8169   10.0521 C.ar    1  UNL1        0.1764
     36 C          67.0164   94.5441    9.4560 C.ar    1  UNL1        0.1762
     37 C          67.1627   93.3202   10.3108 C.ar    1  UNL1        0.0378
     38 O          67.3055   94.7959    8.0058 O.3     1  UNL1       -0.4346
     39 C          66.9601   96.2244    7.7056 C.3     1  UNL1        0.4294
     40 O          66.4576   96.8554    8.9703 O.3     1  UNL1       -0.4346
@<TRIPOS>BOND
     1    16    17    1
     2    17    18    1
     3    18    19    1
     4    19    20    1
     5    20    21   am
     6    21    22    2
     7    21     1    1
     8     1     2   ar
     9     2     3   ar
    10     3    25    1
    11    25    26    1
    12    26    27   ar
    13    27    28   ar
    14    28    29   ar
    15    29    30   ar
    16    30    31    1
    17    31    32    1
    18    32    33   ar
    19    33    34   ar
    20    34    35   ar
    21    35    36   ar
    22    36    37   ar
    23    36    38    1
    24    38    39    1
    25    39    40    1
    26     3     4   ar
    27     4     5   ar
    28     5     6    1
    29     6     7   ar
    30     7     8   ar
    31     8     9   ar
    32     9    10   ar
    33    10    11   ar
    34    11    12   ar
    35    12    13   ar
    36    13    14   ar
    37    14    15   ar
    38    20    23    1
    39    23    24    1
    40    24    17    1
    41     5     1   ar
    42    15     6   ar
    43    30    26   ar
    44    37    32   ar
    45    15    10   ar
    46    40    35    1
@<TRIPOS>MOLECULE
*****
 40 46 0 0 0
SMALL
GASTEIGER

@<TRIPOS>ATOM
      1 C          61.8779   87.2958   10.7540 C.ar    1  UNL1        0.0722
      2 C          61.9630   88.7176   11.2243 C.ar    1  UNL1        0.0808
      3 N          62.9845   88.7828   12.3208 N.ar    1  UNL1       -0.3191
      4 C          63.5307   87.4012   12.5281 C.ar    1  UNL1        0.0764
      5 C          62.8468   86.4822   11.5598 C.ar    1  UNL1        0.0231
      6 C          63.0892   85.0084   11.4215 C.ar    1  UNL1        0.0016
      7 C          63.5568   84.4448   10.1124 C.ar    1  UNL1        0.0001
      8 C          63.7993   82.9710    9.9742 C.ar    1  UNL1        0.0000
      9 C          63.5740   82.0608   11.1451 C.ar    1  UNL1        0.0000
     10 C          63.1064   82.6244   12.4541 C.ar    1  UNL1        0.0000
     11 C          62.8812   81.7142   13.6250 C.ar    1  UNL1        0.0000
     12 C          62.4135   82.2778   14.9340 C.ar    1  UNL1        0.0000
     13 C          62.1711   83.7516   15.0722 C.ar    1  UNL1        0.0000
     14 C          62.3963   84.6618   13.9015 C.ar    1  UNL1        0.0000
     15 C          62.8640   84.0982   12.5923 C.ar    1  UNL1        0.0000
     16 C          58.4781   90.5932    5.7721 C.3     1  UNL1        0.0897
     17 N          59.1040   89.6395    6.7463 N.3     1  UNL1       -0.2686
     18 C          60.0005   90.1570    7.8317 C.3     1  UNL1        0.0939
     19 C          60.6264   89.2032    8.8059 C.3     1  UNL1        0.1110
     20 N          60.3555   87.7320    8.6944 N.am    1  UNL1       -0.2732
     21 C          60.9812   86.7784    9.6685 C.2     1  UNL1        0.2506
     22 O          60.5058   85.4119    9.2727 O.2     1  UNL1       -0.2699
     23 C          59.4588   87.2146    7.6089 C.3     1  UNL1        0.1110
     24 C          58.8331   88.1684    6.6348 C.3     1  UNL1        0.0939
     25 C          63.3889   90.0134   13.0771 C.3     1  UNL1        0.1515
     26 C          63.4310   89.9923   14.5764 C.ar    1  UNL1        0.0809
     27 C          62.8749   88.9145   15.4590 C.ar    1  UNL1        0.1153
     28 N          63.1368   89.3014   16.8843 N.ar    1  UNL1       -0.2226
     29 C          63.8549   90.6184   16.8827 C.ar    1  UNL1        0.1786
     30 N          64.0367   91.0453   15.4563 N.ar    1  UNL1       -0.3065
     31 C          64.7066   92.3044   14.9914 C.3     1  UNL1        0.1341
     32 C          65.7753   92.2414   13.9407 C.ar    1  UNL1        0.0036
     33 C          67.1323   91.7015   14.2827 C.ar    1  UNL1        0.0009
     34 C          68.2010   91.6385   13.2321 C.ar    1  UNL1        0.0399
     35 C          67.9126   92.1154   11.8394 C.ar    1  UNL1        0.1764
     36 C          66.5556   92.6553   11.4975 C.ar    1  UNL1        0.1762
     37 C          65.4870   92.7183   12.5482 C.ar    1  UNL1        0.0378
     38 O          66.5648   93.0495   10.0502 O.3     1  UNL1       -0.4346
     39 C          67.9274   92.7532    9.4977 C.3     1  UNL1        0.4294
     40 O          68.7605   92.1759   10.6035 O.3     1  UNL1       -0.4346
@<TRIPOS>BOND
     1    16    17    1
     2    17    18    1
     3    18    19    1
     4    19    20    1
     5    20    21   am
     6    21    22    2
     7    21     1    1
     8     1     2   ar
     9     2     3   ar
    10     3    25    1
    11    25    26    1
    12    26    27   ar
    13    27    28   ar
    14    28    29   ar
    15    29    30   ar
    16    30    31    1
    17    31    32    1
    18    32    33   ar
    19    33    34   ar
    20    34    35   ar
    21    35    36   ar
    22    36    37   ar
    23    36    38    1
    24    38    39    1
    25    39    40    1
    26     3     4   ar
    27     4     5   ar
    28     5     6    1
    29     6     7   ar
    30     7     8   ar
    31     8     9   ar
    32     9    10   ar
    33    10    11   ar
    34    11    12   ar
    35    12    13   ar
    36    13    14   ar
    37    14    15   ar
    38    20    23    1
    39    23    24    1
    40    24    17    1
    41     5     1   ar
    42    15     6   ar
    43    30    26   ar
    44    37    32   ar
    45    15    10   ar
    46    40    35    1
@<TRIPOS>MOLECULE
*****
 40 46 0 0 0
SMALL
GASTEIGER

@<TRIPOS>ATOM
      1 C          62.3393   86.3385   10.8109 C.ar    1  UNL1        0.0722
      2 C          62.4979   87.7011   11.4177 C.ar    1  UNL1        0.0808
      3 N          63.3888   87.5732   12.6177 N.ar    1  UNL1       -0.3191
      4 C          63.7808   86.1316   12.7525 C.ar    1  UNL1        0.0764
      5 C          63.1322   85.3685   11.6358 C.ar    1  UNL1        0.0231
      6 C          63.2549   83.8943   11.3876 C.ar    1  UNL1        0.0016
      7 C          63.8820   83.3969   10.1189 C.ar    1  UNL1        0.0001
      8 C          64.0048   81.9227    9.8707 C.ar    1  UNL1        0.0000
      9 C          63.5003   80.9458   10.8911 C.ar    1  UNL1        0.0000
     10 C          62.8732   81.4431   12.1597 C.ar    1  UNL1        0.0000
     11 C          62.3688   80.4662   13.1802 C.ar    1  UNL1        0.0000
     12 C          61.7417   80.9636   14.4488 C.ar    1  UNL1        0.0000
     13 C          61.6190   82.4378   14.6970 C.ar    1  UNL1        0.0000
     14 C          62.1234   83.4147   13.6766 C.ar    1  UNL1        0.0000
     15 C          62.7505   82.9174   12.4079 C.ar    1  UNL1        0.0000
     16 C          58.7179   90.3600    6.5726 C.3     1  UNL1        0.0897
     17 N          59.4210   89.2711    7.3278 N.3     1  UNL1       -0.2686
     18 C          60.2303   89.6051    8.5457 C.3     1  UNL1        0.0939
     19 C          60.9333   88.5163    9.3008 C.3     1  UNL1        0.1110
     20 N          60.8270   87.0934    8.8378 N.am    1  UNL1       -0.2732
     21 C          61.5300   86.0046    9.5929 C.2     1  UNL1        0.2506
     22 O          61.2155   84.7295    8.8681 O.2     1  UNL1       -0.2699
     23 C          60.0176   86.7594    7.6199 C.3     1  UNL1        0.1110
     24 C          59.3146   87.8483    6.8648 C.3     1  UNL1        0.0939
     25 C          63.8132   88.6906   13.5239 C.3     1  UNL1        0.1515
     26 C          63.5435   88.6053   14.9970 C.ar    1  UNL1        0.0809
     27 C          63.2307   87.3555   15.7651 C.ar    1  UNL1        0.1153
     28 N          63.0332   87.7325   17.2034 N.ar    1  UNL1       -0.2226
     29 C          63.2239   89.2155   17.3242 C.ar    1  UNL1        0.1786
     30 N          63.5393   89.7548   15.9606 N.ar    1  UNL1       -0.3065
     31 C          63.8040   91.1916   15.6203 C.3     1  UNL1        0.1341
     32 C          65.1977   91.6409   15.2955 C.ar    1  UNL1        0.0036
     33 C          65.8684   91.1589   14.0434 C.ar    1  UNL1        0.0009
     34 C          67.2621   91.6081   13.7185 C.ar    1  UNL1        0.0399
     35 C          67.9852   92.5395   14.6457 C.ar    1  UNL1        0.1764
     36 C          67.3145   93.0215   15.8978 C.ar    1  UNL1        0.1762
     37 C          65.9207   92.5722   16.2227 C.ar    1  UNL1        0.0378
     38 O          68.2696   93.9286   16.6155 O.3     1  UNL1       -0.4346
     39 C          69.5306   94.0072   15.8070 C.3     1  UNL1        0.4294
     40 O          69.3548   93.1486   14.5895 O.3     1  UNL1       -0.4346
@<TRIPOS>BOND
     1    16    17    1
     2    17    18    1
     3    18    19    1
     4    19    20    1
     5    20    21   am
     6    21    22    2
     7    21     1    1
     8     1     2   ar
     9     2     3   ar
    10     3    25    1
    11    25    26    1
    12    26    27   ar
    13    27    28   ar
    14    28    29   ar
    15    29    30   ar
    16    30    31    1
    17    31    32    1
    18    32    33   ar
    19    33    34   ar
    20    34    35   ar
    21    35    36   ar
    22    36    37   ar
    23    36    38    1
    24    38    39    1
    25    39    40    1
    26     3     4   ar
    27     4     5   ar
    28     5     6    1
    29     6     7   ar
    30     7     8   ar
    31     8     9   ar
    32     9    10   ar
    33    10    11   ar
    34    11    12   ar
    35    12    13   ar
    36    13    14   ar
    37    14    15   ar
    38    20    23    1
    39    23    24    1
    40    24    17    1
    41     5     1   ar
    42    15     6   ar
    43    30    26   ar
    44    37    32   ar
    45    15    10   ar
    46    40    35    1
