@<TRIPOS>MOLECULE
*****
 15 16 0 0 0
SMALL
GASTEIGER

@<TRIPOS>ATOM
      1 C          60.5837   87.8333   10.8869 C.ar    1  UNL1        0.1677
      2 C          61.1354   87.7458    9.4947 C.ar    1  UNL1        0.0424
      3 C          62.0333   86.5462    9.4266 C.ar    1  UNL1        0.0407
      4 C          62.0367   85.8924   10.7767 C.ar    1  UNL1        0.1469
      5 O          61.1408   86.6879   11.6791 O.2     1  UNL1       -0.4518
      6 C          62.8017   84.6595   11.1574 C.ar    1  UNL1        0.0537
      7 C          63.5398   83.8812   10.1088 C.ar    1  UNL1        0.0062
      8 C          64.3047   82.6484   10.4896 C.ar    1  UNL1        0.0208
      9 C          64.3316   82.1939   11.9188 C.ar    1  UNL1        0.0989
     10 N          63.5935   82.9722   12.9673 N.ar    1  UNL1       -0.2422
     11 C          62.8286   84.2050   12.5866 C.ar    1  UNL1        0.1019
     12 O          58.9360   91.3760   11.5827 O.2     1  UNL1       -0.4086
     13 N          59.8790   90.3271   11.0725 N.2     1  UNL1       -0.0814
     14 C          59.6406   88.8822   11.3972 C.2     1  UNL1        0.1771
     15 H          59.0849   92.2786   11.3799 H       1  UNL1        0.3278
@<TRIPOS>BOND
     1    12    13    1
     2    13    14    2
     3    14     1    1
     4     1     2   ar
     5     2     3   ar
     6     3     4   ar
     7     4     6    1
     8     6     7   ar
     9     7     8   ar
    10     8     9   ar
    11     9    10   ar
    12    10    11   ar
    13     4     5   ar
    14     5     1   ar
    15    11     6   ar
    16    12    15    1
@<TRIPOS>MOLECULE
*****
 15 16 0 0 0
SMALL
GASTEIGER

@<TRIPOS>ATOM
      1 C          63.9465   90.9453   13.1052 C.ar    1  UNL1        0.1677
      2 C          63.1846   90.7166   11.8334 C.ar    1  UNL1        0.0424
      3 C          63.8633   91.4889   10.7413 C.ar    1  UNL1        0.0407
      4 C          65.0447   92.1949   11.3380 C.ar    1  UNL1        0.1469
      5 O          65.0960   91.8589   12.7990 O.2     1  UNL1       -0.4518
      6 C          66.0059   93.0813   10.6028 C.ar    1  UNL1        0.0537
      7 C          67.2456   92.4990    9.9913 C.ar    1  UNL1        0.0062
      8 C          68.2067   93.3853    9.2562 C.ar    1  UNL1        0.0208
      9 C          67.9281   94.8540    9.1324 C.ar    1  UNL1        0.0989
     10 N          66.6884   95.4363    9.7438 N.ar    1  UNL1       -0.2422
     11 C          65.7272   94.5500   10.4790 C.ar    1  UNL1        0.1019
     12 O          63.2314   90.6661   16.9989 O.2     1  UNL1       -0.4086
     13 N          63.5612   91.2486   15.6566 N.2     1  UNL1       -0.0814
     14 C          63.6167   90.3627   14.4475 C.2     1  UNL1        0.1771
     15 H          63.1968   91.2196   17.7541 H       1  UNL1        0.3278
@<TRIPOS>BOND
     1    12    13    1
     2    13    14    2
     3    14     1    1
     4     1     2   ar
     5     2     3   ar
     6     3     4   ar
     7     4     6    1
     8     6     7   ar
     9     7     8   ar
    10     8     9   ar
    11     9    10   ar
    12    10    11   ar
    13     4     5   ar
    14     5     1   ar
    15    11     6   ar
    16    12    15    1
@<TRIPOS>MOLECULE
*****
 15 16 0 0 0
SMALL
GASTEIGER

@<TRIPOS>ATOM
      1 C          63.1632   90.1880   12.6247 C.ar    1  UNL1        0.1677
      2 C          63.4903   91.0854   11.4679 C.ar    1  UNL1        0.0424
      3 C          62.9002   90.4787   10.2295 C.ar    1  UNL1        0.0407
      4 C          62.2085   89.2065   10.6207 C.ar    1  UNL1        0.1469
      5 O          62.3711   89.0269   12.1010 O.2     1  UNL1       -0.4518
      6 C          61.4818   88.2771    9.6943 C.ar    1  UNL1        0.0537
      7 C          62.0511   86.9227    9.3922 C.ar    1  UNL1        0.0062
      8 C          61.3244   85.9934    8.4658 C.ar    1  UNL1        0.0208
      9 C          60.0284   86.4185    7.8415 C.ar    1  UNL1        0.0989
     10 N          59.4592   87.7730    8.1436 N.ar    1  UNL1       -0.2422
     11 C          60.1859   88.7023    9.0700 C.ar    1  UNL1        0.1019
     12 O          63.1168   90.0705   16.5912 O.2     1  UNL1       -0.4086
     13 N          62.7212   89.8461   15.1619 N.2     1  UNL1       -0.0814
     14 C          63.5589   90.4125   14.0540 C.2     1  UNL1        0.1771
     15 H          62.5935   89.7166   17.2833 H       1  UNL1        0.3278
@<TRIPOS>BOND
     1    12    13    1
     2    13    14    2
     3    14     1    1
     4     1     2   ar
     5     2     3   ar
     6     3     4   ar
     7     4     6    1
     8     6     7   ar
     9     7     8   ar
    10     8     9   ar
    11     9    10   ar
    12    10    11   ar
    13     4     5   ar
    14     5     1   ar
    15    11     6   ar
    16    12    15    1
@<TRIPOS>MOLECULE
*****
 15 16 0 0 0
SMALL
GASTEIGER

@<TRIPOS>ATOM
      1 C          62.8070   87.7213   11.9719 C.ar    1  UNL1        0.1677
      2 C          62.0698   87.2159   10.7673 C.ar    1  UNL1        0.0424
      3 C          61.9718   85.7231   10.8765 C.ar    1  UNL1        0.0407
      4 C          62.6485   85.3059   12.1486 C.ar    1  UNL1        0.1469
      5 O          63.1647   86.5410   12.8255 O.2     1  UNL1       -0.4518
      6 C          62.7851   83.9005   12.6548 C.ar    1  UNL1        0.0537
      7 C          62.8029   82.7536   11.6882 C.ar    1  UNL1        0.0062
      8 C          62.9394   81.3483   12.1944 C.ar    1  UNL1        0.0208
      9 C          63.0581   81.0898   13.6672 C.ar    1  UNL1        0.0989
     10 N          63.0403   82.2367   14.6338 N.ar    1  UNL1       -0.2422
     11 C          62.9038   83.6420   14.1276 C.ar    1  UNL1        0.1019
     12 O          63.1526   91.1596   13.9236 O.2     1  UNL1       -0.4086
     13 N          62.8298   89.7255   13.6250 N.2     1  UNL1       -0.0814
     14 C          63.1299   89.1555   12.2704 C.2     1  UNL1        0.1771
     15 H          62.9652   91.5156   14.7698 H       1  UNL1        0.3278
@<TRIPOS>BOND
     1    12    13    1
     2    13    14    2
     3    14     1    1
     4     1     2   ar
     5     2     3   ar
     6     3     4   ar
     7     4     6    1
     8     6     7   ar
     9     7     8   ar
    10     8     9   ar
    11     9    10   ar
    12    10    11   ar
    13     4     5   ar
    14     5     1   ar
    15    11     6   ar
    16    12    15    1
@<TRIPOS>MOLECULE
*****
 15 16 0 0 0
SMALL
GASTEIGER

@<TRIPOS>ATOM
      1 C          63.2558   84.5111   14.4359 C.ar    1  UNL1        0.1677
      2 C          64.2191   83.5656   13.7815 C.ar    1  UNL1        0.0424
      3 C          64.0474   83.6835   12.2960 C.ar    1  UNL1        0.0407
      4 C          62.9781   84.7018   12.0323 C.ar    1  UNL1        0.1469
      5 O          62.4889   85.2133   13.3548 O.2     1  UNL1       -0.4518
      6 C          62.4846   85.1330   10.6830 C.ar    1  UNL1        0.0537
      7 C          63.2203   84.7117    9.4456 C.ar    1  UNL1        0.0062
      8 C          62.7268   85.1429    8.0963 C.ar    1  UNL1        0.0208
      9 C          61.4976   85.9953    7.9845 C.ar    1  UNL1        0.0989
     10 N          60.7619   86.4166    9.2219 N.ar    1  UNL1       -0.2422
     11 C          61.2554   85.9854   10.5712 C.ar    1  UNL1        0.1019
     12 O          62.0908   86.0656   17.8965 O.2     1  UNL1       -0.4086
     13 N          62.2578   85.8586   16.4203 N.2     1  UNL1       -0.0814
     14 C          63.0889   84.7181   15.9121 C.2     1  UNL1        0.1771
     15 H          61.5716   86.7782   18.2139 H       1  UNL1        0.3278
@<TRIPOS>BOND
     1    12    13    1
     2    13    14    2
     3    14     1    1
     4     1     2   ar
     5     2     3   ar
     6     3     4   ar
     7     4     6    1
     8     6     7   ar
     9     7     8   ar
    10     8     9   ar
    11     9    10   ar
    12    10    11   ar
    13     4     5   ar
    14     5     1   ar
    15    11     6   ar
    16    12    15    1
@<TRIPOS>MOLECULE
*****
 15 16 0 0 0
SMALL
GASTEIGER

@<TRIPOS>ATOM
      1 C          62.5887   84.7889   12.2850 C.ar    1  UNL1        0.1677
      2 C          63.2724   84.2017   11.0859 C.ar    1  UNL1        0.0424
      3 C          62.7441   84.8953    9.8653 C.ar    1  UNL1        0.0407
      4 C          61.7339   85.9111   10.3100 C.ar    1  UNL1        0.1469
      5 O          61.6379   85.8453   11.8054 O.2     1  UNL1       -0.4518
      6 C          60.9564   86.8311    9.4160 C.ar    1  UNL1        0.0537
      7 C          60.0548   86.2651    8.3592 C.ar    1  UNL1        0.0062
      8 C          59.2773   87.1851    7.4654 C.ar    1  UNL1        0.0208
      9 C          59.4013   88.6711    7.6284 C.ar    1  UNL1        0.0989
     10 N          60.3029   89.2370    8.6852 N.ar    1  UNL1       -0.2422
     11 C          61.0804   88.3170    9.5790 C.ar    1  UNL1        0.1019
     12 O          62.7457   82.5887   15.5841 O.2     1  UNL1       -0.4086
     13 N          62.5186   82.9880   14.1563 N.2     1  UNL1       -0.0814
     14 C          62.8159   84.3898   13.7130 C.2     1  UNL1        0.1771
     15 H          62.5600   81.7130   15.8610 H       1  UNL1        0.3278
@<TRIPOS>BOND
     1    12    13    1
     2    13    14    2
     3    14     1    1
     4     1     2   ar
     5     2     3   ar
     6     3     4   ar
     7     4     6    1
     8     6     7   ar
     9     7     8   ar
    10     8     9   ar
    11     9    10   ar
    12    10    11   ar
    13     4     5   ar
    14     5     1   ar
    15    11     6   ar
    16    12    15    1
@<TRIPOS>MOLECULE
*****
 15 16 0 0 0
SMALL
GASTEIGER

@<TRIPOS>ATOM
      1 C          61.3660   86.3763    9.2775 C.ar    1  UNL1        0.1677
      2 C          62.5053   85.7834    8.5025 C.ar    1  UNL1        0.0424
      3 C          63.1813   84.7683    9.3758 C.ar    1  UNL1        0.0407
      4 C          62.4598   84.7338   10.6905 C.ar    1  UNL1        0.1469
      5 O          61.3379   85.7276   10.6297 O.2     1  UNL1       -0.4518
      6 C          62.8004   83.8591   11.8605 C.ar    1  UNL1        0.0537
      7 C          63.0247   82.3898   11.6583 C.ar    1  UNL1        0.0062
      8 C          63.3653   81.5152   12.8283 C.ar    1  UNL1        0.0208
      9 C          63.4817   82.1098   14.2005 C.ar    1  UNL1        0.0989
     10 N          63.2575   83.5790   14.4026 N.ar    1  UNL1       -0.2422
     11 C          62.9169   84.4537   13.2327 C.ar    1  UNL1        0.1019
     12 O          58.4071   88.1361    7.3032 O.2     1  UNL1       -0.4086
     13 N          59.3523   87.0801    7.7943 N.2     1  UNL1       -0.0814
     14 C          60.4207   87.4324    8.7865 C.2     1  UNL1        0.1771
     15 H          57.7398   87.9160    6.6835 H       1  UNL1        0.3278
@<TRIPOS>BOND
     1    12    13    1
     2    13    14    2
     3    14     1    1
     4     1     2   ar
     5     2     3   ar
     6     3     4   ar
     7     4     6    1
     8     6     7   ar
     9     7     8   ar
    10     8     9   ar
    11     9    10   ar
    12    10    11   ar
    13     4     5   ar
    14     5     1   ar
    15    11     6   ar
    16    12    15    1
@<TRIPOS>MOLECULE
*****
 15 16 0 0 0
SMALL
GASTEIGER

@<TRIPOS>ATOM
      1 C          63.8048   87.6899   13.5557 C.ar    1  UNL1        0.1677
      2 C          64.5274   87.2831   14.8057 C.ar    1  UNL1        0.0424
      3 C          64.4576   85.7888   14.9160 C.ar    1  UNL1        0.0407
      4 C          63.6919   85.2720   13.7341 C.ar    1  UNL1        0.1469
      5 O          63.2885   86.4470   12.8935 O.2     1  UNL1       -0.4518
      6 C          63.3837   83.8329   13.4440 C.ar    1  UNL1        0.0537
      7 C          63.1055   83.3945   12.0368 C.ar    1  UNL1        0.0062
      8 C          62.7974   81.9555   11.7467 C.ar    1  UNL1        0.0208
      9 C          62.7674   80.9549   12.8638 C.ar    1  UNL1        0.0989
     10 N          63.0456   81.3934   14.2710 N.ar    1  UNL1       -0.2422
     11 C          63.3537   82.8324   14.5611 C.ar    1  UNL1        0.1019
     12 O          63.4075   91.6384   13.5273 O.2     1  UNL1       -0.4086
     13 N          63.5829   90.2352   14.0271 N.2     1  UNL1       -0.0814
     14 C          63.6294   89.0932   13.0557 C.2     1  UNL1        0.1771
     15 H          63.3784   92.3517   14.1342 H       1  UNL1        0.3278
@<TRIPOS>BOND
     1    12    13    1
     2    13    14    2
     3    14     1    1
     4     1     2   ar
     5     2     3   ar
     6     3     4   ar
     7     4     6    1
     8     6     7   ar
     9     7     8   ar
    10     8     9   ar
    11     9    10   ar
    12    10    11   ar
    13     4     5   ar
    14     5     1   ar
    15    11     6   ar
    16    12    15    1
@<TRIPOS>MOLECULE
*****
 15 16 0 0 0
SMALL
GASTEIGER

@<TRIPOS>ATOM
      1 C          64.2029   90.3040   14.3603 C.ar    1  UNL1        0.1677
      2 C          64.4962   88.8481   14.5714 C.ar    1  UNL1        0.0424
      3 C          63.8200   88.0757   13.4777 C.ar    1  UNL1        0.0407
      4 C          63.1089   89.0542   12.5906 C.ar    1  UNL1        0.1469
      5 O          63.3455   90.4313   13.1361 O.2     1  UNL1       -0.4518
      6 C          62.3026   88.7150   11.3720 C.ar    1  UNL1        0.0537
      7 C          62.1799   87.2877   10.9273 C.ar    1  UNL1        0.0062
      8 C          61.3736   86.9486    9.7087 C.ar    1  UNL1        0.0208
      9 C          60.6902   88.0367    8.9348 C.ar    1  UNL1        0.0989
     10 N          60.8130   89.4640    9.3795 N.ar    1  UNL1       -0.2422
     11 C          61.6192   89.8031   10.5981 C.ar    1  UNL1        0.1019
     12 O          64.3437   93.0118   17.2581 O.2     1  UNL1       -0.4086
     13 N          63.8639   91.8818   16.3964 N.2     1  UNL1       -0.0814
     14 C          64.6827   91.4341   15.2220 C.2     1  UNL1        0.1771
     15 H          63.8321   93.2914   17.9917 H       1  UNL1        0.3278
@<TRIPOS>BOND
     1    12    13    1
     2    13    14    2
     3    14     1    1
     4     1     2   ar
     5     2     3   ar
     6     3     4   ar
     7     4     6    1
     8     6     7   ar
     9     7     8   ar
    10     8     9   ar
    11     9    10   ar
    12    10    11   ar
    13     4     5   ar
    14     5     1   ar
    15    11     6   ar
    16    12    15    1
