@<TRIPOS>MOLECULE
*****
 28 31 0 0 0
SMALL
GASTEIGER

@<TRIPOS>ATOM
      1 C          64.1694   90.4210   13.6073 C.3     1  UNL1        0.1693
      2 C          63.4066   89.8906   12.4296 C.3     1  UNL1        0.0650
      3 C          63.1369   88.4198   12.3115 C.3     1  UNL1        0.0959
      4 N          63.6299   87.4794   13.3709 N.pl3   1  UNL1       -0.2916
      5 C          64.3927   88.0097   14.5486 C.3     1  UNL1        0.0959
      6 C          64.6624   89.4805   14.6668 C.3     1  UNL1        0.0650
      7 C          63.3602   86.0086   13.2528 C.ar    1  UNL1        0.1536
      8 C          63.0069   85.4154   11.9210 C.ar    1  UNL1        0.0393
      9 C          62.7372   83.9447   11.8028 C.ar    1  UNL1        0.0421
     10 C          62.8208   83.0669   13.0164 C.ar    1  UNL1        0.1705
     11 N          63.1740   83.6600   14.3480 N.ar    1  UNL1       -0.1286
     12 N          63.4438   85.1308   14.4663 N.ar    1  UNL1       -0.1315
     13 N          62.5510   81.5962   12.8982 N.ar    1  UNL1       -0.2698
     14 C          61.8685   80.7398   13.9233 C.ar    1  UNL1        0.1036
     15 C          61.8121   79.3377   13.3928 C.ar    1  UNL1        0.1197
     16 N          62.4599   79.3277   12.0398 N.ar    1  UNL1       -0.2220
     17 C          62.9165   80.7234   11.7341 C.ar    1  UNL1        0.1840
     18 O          64.4391   91.8918   13.7255 O.3     1  UNL1       -0.4791
     19 C          66.8789   92.7494   13.4762 C.ar    1  UNL1        0.1053
     20 C          68.1567   93.2301   14.0976 C.ar    1  UNL1        0.0069
     21 C          68.2727   93.3337   15.5895 C.ar    1  UNL1        0.0001
     22 C          67.1109   92.9566   16.4601 C.ar    1  UNL1        0.0031
     23 C          65.8331   92.4760   15.8387 C.ar    1  UNL1        0.0368
     24 C          65.7170   92.3724   14.3468 C.ar    1  UNL1        0.1422
     25 F          66.6468   92.5423   10.4924 F       1  UNL1       -0.1657
     26 C          66.7628   92.6459   11.9843 C.3     1  UNL1        0.4214
     27 F          67.9648   91.7490   11.9531 F       1  UNL1       -0.1657
     28 F          65.5609   93.5427   12.0155 F       1  UNL1       -0.1657
@<TRIPOS>BOND
     1    25    26    1
     2    26    27    1
     3    26    28    1
     4    26    19    1
     5    19    20   ar
     6    20    21   ar
     7    21    22   ar
     8    22    23   ar
     9    23    24   ar
    10    24    18    1
    11    18     1    1
    12     1     2    1
    13     2     3    1
    14     3     4    1
    15     4     7    1
    16     7     8   ar
    17     8     9   ar
    18     9    10   ar
    19    10    13    1
    20    13    14   ar
    21    14    15   ar
    22    15    16   ar
    23    16    17   ar
    24    10    11   ar
    25    11    12   ar
    26     4     5    1
    27     5     6    1
    28    24    19   ar
    29     6     1    1
    30    12     7   ar
    31    17    13   ar
@<TRIPOS>MOLECULE
*****
 28 31 0 0 0
SMALL
GASTEIGER

@<TRIPOS>ATOM
      1 C          63.1881   84.5383   11.3206 C.3     1  UNL1        0.1693
      2 C          62.2063   85.4908   11.9362 C.3     1  UNL1        0.0650
      3 C          61.4305   86.4347   11.0661 C.3     1  UNL1        0.0959
      4 N          61.6365   86.4262    9.5803 N.pl3   1  UNL1       -0.2916
      5 C          62.6182   85.4738    8.9647 C.3     1  UNL1        0.0959
      6 C          63.3940   84.5298    9.8348 C.3     1  UNL1        0.0650
      7 C          60.8607   87.3701    8.7102 C.ar    1  UNL1        0.1536
      8 C          60.0377   86.8385    7.5743 C.ar    1  UNL1        0.0393
      9 C          59.2619   87.7825    6.7042 C.ar    1  UNL1        0.0421
     10 C          59.3091   89.2580    6.9699 C.ar    1  UNL1        0.1705
     11 N          60.1321   89.7896    8.1057 N.ar    1  UNL1       -0.1286
     12 N          60.9079   88.8457    8.9759 N.ar    1  UNL1       -0.1315
     13 N          58.5334   90.2019    6.0998 N.ar    1  UNL1       -0.2698
     14 C          59.1116   91.2914    5.2462 C.ar    1  UNL1        0.1036
     15 C          57.9787   91.9850    4.5493 C.ar    1  UNL1        0.1197
     16 N          56.7002   91.3241    4.9722 N.ar    1  UNL1       -0.2220
     17 C          57.0430   90.2221    5.9305 C.ar    1  UNL1        0.1840
     18 O          63.9638   83.5944   12.1907 O.3     1  UNL1       -0.4791
     19 C          62.8350   82.2478   14.1045 C.ar    1  UNL1        0.1053
     20 C          62.1928   80.9868   14.6019 C.ar    1  UNL1        0.0069
     21 C          62.0373   79.8114   13.6832 C.ar    1  UNL1        0.0001
     22 C          62.5240   79.8969   12.2669 C.ar    1  UNL1        0.0031
     23 C          63.1662   81.1579   11.7695 C.ar    1  UNL1        0.0368
     24 C          63.3216   82.3334   12.6882 C.ar    1  UNL1        0.1422
     25 F          63.1459   84.5987   15.9420 F       1  UNL1       -0.1657
     26 C          62.9905   83.4233   15.0233 C.3     1  UNL1        0.4214
     27 F          64.4014   83.0071   15.3169 F       1  UNL1       -0.1657
     28 F          61.5796   83.8394   14.7296 F       1  UNL1       -0.1657
@<TRIPOS>BOND
     1    25    26    1
     2    26    27    1
     3    26    28    1
     4    26    19    1
     5    19    20   ar
     6    20    21   ar
     7    21    22   ar
     8    22    23   ar
     9    23    24   ar
    10    24    18    1
    11    18     1    1
    12     1     2    1
    13     2     3    1
    14     3     4    1
    15     4     7    1
    16     7     8   ar
    17     8     9   ar
    18     9    10   ar
    19    10    13    1
    20    13    14   ar
    21    14    15   ar
    22    15    16   ar
    23    16    17   ar
    24    10    11   ar
    25    11    12   ar
    26     4     5    1
    27     5     6    1
    28    24    19   ar
    29     6     1    1
    30    12     7   ar
    31    17    13   ar
@<TRIPOS>MOLECULE
*****
 28 31 0 0 0
SMALL
GASTEIGER

@<TRIPOS>ATOM
      1 C          64.1602   90.7486   13.1370 C.3     1  UNL1        0.1693
      2 C          64.6525   89.9067   14.2767 C.3     1  UNL1        0.0650
      3 C          64.3619   88.4353   14.3024 C.3     1  UNL1        0.0959
      4 N          63.5790   87.8058   13.1885 N.pl3   1  UNL1       -0.2916
      5 C          63.0867   88.6476   12.0489 C.3     1  UNL1        0.0959
      6 C          63.3773   90.1191   12.0231 C.3     1  UNL1        0.0650
      7 C          63.2885   86.3345   13.2143 C.ar    1  UNL1        0.1536
      8 C          62.8037   85.6439   11.9741 C.ar    1  UNL1        0.0393
      9 C          62.5132   84.1725   11.9998 C.ar    1  UNL1        0.0421
     10 C          62.7073   83.3917   13.2658 C.ar    1  UNL1        0.1705
     11 N          63.1920   84.0823   14.5060 N.ar    1  UNL1       -0.1286
     12 N          63.4826   85.5537   14.4803 N.ar    1  UNL1       -0.1315
     13 N          62.4167   81.9204   13.2916 N.ar    1  UNL1       -0.2698
     14 C          61.4706   81.2247   14.2248 C.ar    1  UNL1        0.1036
     15 C          61.4904   79.7607   13.8986 C.ar    1  UNL1        0.1197
     16 N          62.4488   79.5516   12.7637 N.ar    1  UNL1       -0.2220
     17 C          63.0213   80.8863   12.3886 C.ar    1  UNL1        0.1840
     18 O          64.4507   92.2199   13.1112 O.3     1  UNL1       -0.4791
     19 C          66.8715   92.8768   12.4341 C.ar    1  UNL1        0.1053
     20 C          67.8325   93.4340   11.4262 C.ar    1  UNL1        0.0069
     21 C          67.3339   93.8914   10.0874 C.ar    1  UNL1        0.0001
     22 C          65.8743   93.7916    9.7566 C.ar    1  UNL1        0.0031
     23 C          64.9133   93.2344   10.7645 C.ar    1  UNL1        0.0368
     24 C          65.4119   92.7771   12.1032 C.ar    1  UNL1        0.1422
     25 F          67.8687   91.9621   15.1115 F       1  UNL1       -0.1657
     26 C          67.3701   92.4195   13.7728 C.3     1  UNL1        0.4214
     27 F          66.5630   93.4933   14.4403 F       1  UNL1       -0.1657
     28 F          68.1772   91.3457   13.1054 F       1  UNL1       -0.1657
@<TRIPOS>BOND
     1    25    26    1
     2    26    27    1
     3    26    28    1
     4    26    19    1
     5    19    20   ar
     6    20    21   ar
     7    21    22   ar
     8    22    23   ar
     9    23    24   ar
    10    24    18    1
    11    18     1    1
    12     1     2    1
    13     2     3    1
    14     3     4    1
    15     4     7    1
    16     7     8   ar
    17     8     9   ar
    18     9    10   ar
    19    10    13    1
    20    13    14   ar
    21    14    15   ar
    22    15    16   ar
    23    16    17   ar
    24    10    11   ar
    25    11    12   ar
    26     4     5    1
    27     5     6    1
    28    24    19   ar
    29     6     1    1
    30    12     7   ar
    31    17    13   ar
@<TRIPOS>MOLECULE
*****
 28 31 0 0 0
SMALL
GASTEIGER

@<TRIPOS>ATOM
      1 C          62.7285   85.2177   11.9909 C.3     1  UNL1        0.1693
      2 C          62.0052   84.6174   10.8219 C.3     1  UNL1        0.0650
      3 C          61.3402   85.5072    9.8140 C.3     1  UNL1        0.0959
      4 N          61.3985   86.9974    9.9750 N.pl3   1  UNL1       -0.2916
      5 C          62.1218   87.5978   11.1439 C.3     1  UNL1        0.0959
      6 C          62.7868   86.7079   12.1519 C.3     1  UNL1        0.0650
      7 C          60.7335   87.8873    8.9671 C.ar    1  UNL1        0.1536
      8 C          59.9063   87.2887    7.8682 C.ar    1  UNL1        0.0393
      9 C          59.2413   88.1785    6.8603 C.ar    1  UNL1        0.0421
     10 C          59.4035   89.6670    6.9512 C.ar    1  UNL1        0.1705
     11 N          60.2307   90.2656    8.0500 N.ar    1  UNL1       -0.1286
     12 N          60.8957   89.3757    9.0580 N.ar    1  UNL1       -0.1315
     13 N          58.7385   90.5568    5.9433 N.ar    1  UNL1       -0.2698
     14 C          57.2660   90.6294    5.6667 C.ar    1  UNL1        0.1036
     15 C          57.0467   91.6478    4.5874 C.ar    1  UNL1        0.1197
     16 N          58.3837   92.2047    4.1969 N.ar    1  UNL1       -0.2220
     17 C          59.4293   91.5304    5.0349 C.ar    1  UNL1        0.1840
     18 O          63.3935   84.3279   12.9988 O.3     1  UNL1       -0.4791
     19 C          63.3164   81.8642   12.1776 C.ar    1  UNL1        0.1053
     20 C          62.8483   80.4501   12.3542 C.ar    1  UNL1        0.0069
     21 C          61.9892   80.0856   13.5285 C.ar    1  UNL1        0.0001
     22 C          61.5981   81.1351   14.5262 C.ar    1  UNL1        0.0031
     23 C          62.0663   82.5492   14.3496 C.ar    1  UNL1        0.0368
     24 C          62.9254   82.9137   13.1753 C.ar    1  UNL1        0.1422
     25 F          65.0348   82.5932    9.8290 F       1  UNL1       -0.1657
     26 C          64.1756   82.2287   11.0033 C.3     1  UNL1        0.4214
     27 F          63.2027   81.5542   10.0821 F       1  UNL1       -0.1657
     28 F          65.1485   82.9033   11.9245 F       1  UNL1       -0.1657
@<TRIPOS>BOND
     1    25    26    1
     2    26    27    1
     3    26    28    1
     4    26    19    1
     5    19    20   ar
     6    20    21   ar
     7    21    22   ar
     8    22    23   ar
     9    23    24   ar
    10    24    18    1
    11    18     1    1
    12     1     2    1
    13     2     3    1
    14     3     4    1
    15     4     7    1
    16     7     8   ar
    17     8     9   ar
    18     9    10   ar
    19    10    13    1
    20    13    14   ar
    21    14    15   ar
    22    15    16   ar
    23    16    17   ar
    24    10    11   ar
    25    11    12   ar
    26     4     5    1
    27     5     6    1
    28    24    19   ar
    29     6     1    1
    30    12     7   ar
    31    17    13   ar
@<TRIPOS>MOLECULE
*****
 28 31 0 0 0
SMALL
GASTEIGER

@<TRIPOS>ATOM
      1 C          59.1034   90.1604    6.2281 C.3     1  UNL1        0.1693
      2 C          58.1153   91.0351    5.5148 C.3     1  UNL1        0.0650
      3 C          58.5689   91.9146    4.3876 C.3     1  UNL1        0.0959
      4 N          60.0106   91.9195    3.9736 N.pl3   1  UNL1       -0.2916
      5 C          60.9987   91.0450    4.6868 C.3     1  UNL1        0.0959
      6 C          60.5451   90.1654    5.8141 C.3     1  UNL1        0.0650
      7 C          60.4642   92.7991    2.8464 C.ar    1  UNL1        0.1536
      8 C          61.8907   92.7511    2.3850 C.ar    1  UNL1        0.0393
      9 C          62.3443   93.6306    1.2577 C.ar    1  UNL1        0.0421
     10 C          61.3714   94.5581    0.5919 C.ar    1  UNL1        0.1705
     11 N          59.9450   94.6061    1.0533 N.ar    1  UNL1       -0.1286
     12 N          59.4913   93.7266    2.1806 N.ar    1  UNL1       -0.1315
     13 N          61.8250   95.4376   -0.5353 N.ar    1  UNL1       -0.2698
     14 C          60.9447   96.0545   -1.5815 C.ar    1  UNL1        0.1036
     15 C          61.8143   96.8529   -2.5071 C.ar    1  UNL1        0.1197
     16 N          63.2320   96.7294   -2.0328 N.ar    1  UNL1       -0.2220
     17 C          63.2387   95.8548   -0.8142 C.ar    1  UNL1        0.1840
     18 O          58.6498   89.2809    7.3553 O.3     1  UNL1       -0.4791
     19 C          60.3462   88.3428    9.0852 C.ar    1  UNL1        0.1053
     20 C          61.2268   87.2289    9.5685 C.ar    1  UNL1        0.0069
     21 C          61.2919   85.9392    8.8052 C.ar    1  UNL1        0.0001
     22 C          60.4763   85.7635    7.5587 C.ar    1  UNL1        0.0031
     23 C          59.5957   86.8774    7.0754 C.ar    1  UNL1        0.0368
     24 C          59.5306   88.1670    7.8387 C.ar    1  UNL1        0.1422
     25 F          60.2160   90.9221   10.6117 F       1  UNL1       -0.1657
     26 C          60.2811   89.6324    9.8484 C.3     1  UNL1        0.4214
     27 F          59.1861   89.0699   10.7055 F       1  UNL1       -0.1657
     28 F          61.3760   90.1950    8.9913 F       1  UNL1       -0.1657
@<TRIPOS>BOND
     1    25    26    1
     2    26    27    1
     3    26    28    1
     4    26    19    1
     5    19    20   ar
     6    20    21   ar
     7    21    22   ar
     8    22    23   ar
     9    23    24   ar
    10    24    18    1
    11    18     1    1
    12     1     2    1
    13     2     3    1
    14     3     4    1
    15     4     7    1
    16     7     8   ar
    17     8     9   ar
    18     9    10   ar
    19    10    13    1
    20    13    14   ar
    21    14    15   ar
    22    15    16   ar
    23    16    17   ar
    24    10    11   ar
    25    11    12   ar
    26     4     5    1
    27     5     6    1
    28    24    19   ar
    29     6     1    1
    30    12     7   ar
    31    17    13   ar
@<TRIPOS>MOLECULE
*****
 28 31 0 0 0
SMALL
GASTEIGER

@<TRIPOS>ATOM
      1 C          59.3654   90.0288    6.2418 C.3     1  UNL1        0.1693
      2 C          58.3038   90.8570    5.5804 C.3     1  UNL1        0.0650
      3 C          58.6613   91.7621    4.4390 C.3     1  UNL1        0.0959
      4 N          60.0802   91.8392    3.9589 N.pl3   1  UNL1       -0.2916
      5 C          61.1418   91.0111    4.6202 C.3     1  UNL1        0.0959
      6 C          60.7844   90.1059    5.7617 C.3     1  UNL1        0.0650
      7 C          60.4377   92.7443    2.8174 C.ar    1  UNL1        0.1536
      8 C          61.8513   92.7998    2.3185 C.ar    1  UNL1        0.0393
      9 C          62.2087   93.7049    1.1771 C.ar    1  UNL1        0.0421
     10 C          61.1527   94.5546    0.5345 C.ar    1  UNL1        0.1705
     11 N          59.7392   94.4991    1.0334 N.ar    1  UNL1       -0.1286
     12 N          59.3817   93.5940    2.1749 N.ar    1  UNL1       -0.1315
     13 N          61.5101   95.4597   -0.6069 N.ar    1  UNL1       -0.2698
     14 C          62.8786   95.9906   -0.9160 C.ar    1  UNL1        0.1036
     15 C          62.7761   96.8520   -2.1399 C.ar    1  UNL1        0.1197
     16 N          61.3443   96.8534   -2.5871 N.ar    1  UNL1       -0.2220
     17 C          60.5619   95.9930   -1.6397 C.ar    1  UNL1        0.1840
     18 O          59.0079   89.1237    7.3832 O.3     1  UNL1       -0.4791
     19 C          60.5433   87.5659    8.7854 C.ar    1  UNL1        0.1053
     20 C          61.5082   87.3688    9.9168 C.ar    1  UNL1        0.0069
     21 C          61.9026   88.5322   10.7775 C.ar    1  UNL1        0.0001
     22 C          61.3321   89.8928   10.5068 C.ar    1  UNL1        0.0031
     23 C          60.3673   90.0900    9.3754 C.ar    1  UNL1        0.0368
     24 C          59.9729   88.9265    8.5147 C.ar    1  UNL1        0.1422
     25 F          59.7545   85.2390    7.0640 F       1  UNL1       -0.1657
     26 C          60.1489   86.4025    7.9247 C.3     1  UNL1        0.4214
     27 F          61.5961   86.0903    7.6835 F       1  UNL1       -0.1657
     28 F          58.7017   86.7146    8.1658 F       1  UNL1       -0.1657
@<TRIPOS>BOND
     1    25    26    1
     2    26    27    1
     3    26    28    1
     4    26    19    1
     5    19    20   ar
     6    20    21   ar
     7    21    22   ar
     8    22    23   ar
     9    23    24   ar
    10    24    18    1
    11    18     1    1
    12     1     2    1
    13     2     3    1
    14     3     4    1
    15     4     7    1
    16     7     8   ar
    17     8     9   ar
    18     9    10   ar
    19    10    13    1
    20    13    14   ar
    21    14    15   ar
    22    15    16   ar
    23    16    17   ar
    24    10    11   ar
    25    11    12   ar
    26     4     5    1
    27     5     6    1
    28    24    19   ar
    29     6     1    1
    30    12     7   ar
    31    17    13   ar
@<TRIPOS>MOLECULE
*****
 28 31 0 0 0
SMALL
GASTEIGER

@<TRIPOS>ATOM
      1 C          62.8773   84.5581   11.0310 C.3     1  UNL1        0.1693
      2 C          61.7910   85.4040   11.6267 C.3     1  UNL1        0.0650
      3 C          61.0538   86.3904   10.7703 C.3     1  UNL1        0.0959
      4 N          61.4028   86.5311    9.3182 N.pl3   1  UNL1       -0.2916
      5 C          62.4890   85.6853    8.7226 C.3     1  UNL1        0.0959
      6 C          63.2263   84.6988    9.5790 C.3     1  UNL1        0.0650
      7 C          60.6656   87.5175    8.4618 C.ar    1  UNL1        0.1536
      8 C          59.7049   87.0327    7.4168 C.ar    1  UNL1        0.0393
      9 C          58.9677   88.0191    6.5604 C.ar    1  UNL1        0.0421
     10 C          59.1912   89.4903    6.7490 C.ar    1  UNL1        0.1705
     11 N          60.1519   89.9751    7.7939 N.ar    1  UNL1       -0.1286
     12 N          60.8892   88.9887    8.6504 N.ar    1  UNL1       -0.1315
     13 N          58.4540   90.4768    5.8926 N.ar    1  UNL1       -0.2698
     14 C          56.9776   90.4839    5.6274 C.ar    1  UNL1        0.1036
     15 C          56.6749   91.6409    4.7218 C.ar    1  UNL1        0.1197
     16 N          57.9642   92.3488    4.4274 N.ar    1  UNL1       -0.2220
     17 C          59.0637   91.6293    5.1509 C.ar    1  UNL1        0.1840
     18 O          63.6145   83.5717   11.8874 O.3     1  UNL1       -0.4791
     19 C          63.3904   82.8024   14.3589 C.ar    1  UNL1        0.1053
     20 C          63.5712   83.0690   15.8238 C.ar    1  UNL1        0.0069
     21 C          64.1570   84.3715   16.2824 C.ar    1  UNL1        0.0001
     22 C          64.5619   85.4074   15.2761 C.ar    1  UNL1        0.0031
     23 C          64.3811   85.1408   13.8111 C.ar    1  UNL1        0.0368
     24 C          63.7953   83.8383   13.3525 C.ar    1  UNL1        0.1422
     25 F          62.2188   80.1973   13.4417 F       1  UNL1       -0.1657
     26 C          62.8046   81.4998   13.9003 C.3     1  UNL1        0.4214
     27 F          64.1750   81.0130   13.5328 F       1  UNL1       -0.1657
     28 F          61.4342   81.9867   14.2678 F       1  UNL1       -0.1657
@<TRIPOS>BOND
     1    25    26    1
     2    26    27    1
     3    26    28    1
     4    26    19    1
     5    19    20   ar
     6    20    21   ar
     7    21    22   ar
     8    22    23   ar
     9    23    24   ar
    10    24    18    1
    11    18     1    1
    12     1     2    1
    13     2     3    1
    14     3     4    1
    15     4     7    1
    16     7     8   ar
    17     8     9   ar
    18     9    10   ar
    19    10    13    1
    20    13    14   ar
    21    14    15   ar
    22    15    16   ar
    23    16    17   ar
    24    10    11   ar
    25    11    12   ar
    26     4     5    1
    27     5     6    1
    28    24    19   ar
    29     6     1    1
    30    12     7   ar
    31    17    13   ar
@<TRIPOS>MOLECULE
*****
 28 31 0 0 0
SMALL
GASTEIGER

@<TRIPOS>ATOM
      1 C          60.9427   89.5564   10.8134 C.3     1  UNL1        0.1693
      2 C          62.0486   90.2286   10.0550 C.3     1  UNL1        0.0650
      3 C          63.2145   90.8168   10.7929 C.3     1  UNL1        0.0959
      4 N          63.2746   90.7328   12.2894 N.pl3   1  UNL1       -0.2916
      5 C          62.1687   90.0607   13.0478 C.3     1  UNL1        0.0959
      6 C          61.0028   89.4724   12.3099 C.3     1  UNL1        0.0650
      7 C          64.4405   91.3210   13.0273 C.ar    1  UNL1        0.1536
      8 C          65.0069   90.6122   14.2219 C.ar    1  UNL1        0.0393
      9 C          66.1728   91.2004   14.9599 C.ar    1  UNL1        0.0421
     10 C          66.7723   92.4974   14.5034 C.ar    1  UNL1        0.1705
     11 N          66.2059   93.2062   13.3089 N.ar    1  UNL1       -0.1286
     12 N          65.0400   92.6180   12.5709 N.ar    1  UNL1       -0.1315
     13 N          67.9382   93.0856   15.2413 N.ar    1  UNL1       -0.2698
     14 C          68.2344   94.5475   15.4003 C.ar    1  UNL1        0.1036
     15 C          69.4920   94.6806   16.2072 C.ar    1  UNL1        0.1197
     16 N          69.9729   93.3010   16.5469 N.ar    1  UNL1       -0.2220
     17 C          69.0127   92.3152   15.9500 C.ar    1  UNL1        0.1840
     18 O          59.7768   88.9682   10.0755 O.3     1  UNL1       -0.4791
     19 C          61.0413   86.8106    9.3711 C.ar    1  UNL1        0.1053
     20 C          61.2581   85.6918    8.3958 C.ar    1  UNL1        0.0069
     21 C          60.4273   85.6118    7.1494 C.ar    1  UNL1        0.0001
     22 C          59.3798   86.6505    6.8784 C.ar    1  UNL1        0.0031
     23 C          59.1629   87.7693    7.8537 C.ar    1  UNL1        0.0368
     24 C          59.9937   87.8493    9.1001 C.ar    1  UNL1        0.1422
     25 F          62.7028   86.9706   11.8639 F       1  UNL1       -0.1657
     26 C          61.8720   86.8906   10.6175 C.3     1  UNL1        0.4214
     27 F          63.0165   87.4411    9.8193 F       1  UNL1       -0.1657
     28 F          60.7275   86.3401   11.4157 F       1  UNL1       -0.1657
@<TRIPOS>BOND
     1    25    26    1
     2    26    27    1
     3    26    28    1
     4    26    19    1
     5    19    20   ar
     6    20    21   ar
     7    21    22   ar
     8    22    23   ar
     9    23    24   ar
    10    24    18    1
    11    18     1    1
    12     1     2    1
    13     2     3    1
    14     3     4    1
    15     4     7    1
    16     7     8   ar
    17     8     9   ar
    18     9    10   ar
    19    10    13    1
    20    13    14   ar
    21    14    15   ar
    22    15    16   ar
    23    16    17   ar
    24    10    11   ar
    25    11    12   ar
    26     4     5    1
    27     5     6    1
    28    24    19   ar
    29     6     1    1
    30    12     7   ar
    31    17    13   ar
@<TRIPOS>MOLECULE
*****
 28 31 0 0 0
SMALL
GASTEIGER

@<TRIPOS>ATOM
      1 C          61.7414   88.4825   10.7837 C.3     1  UNL1        0.1693
      2 C          62.0614   89.8843   10.3562 C.3     1  UNL1        0.0650
      3 C          63.0993   90.6755   11.0956 C.3     1  UNL1        0.0959
      4 N          63.8172   90.0649   12.2626 N.pl3   1  UNL1       -0.2916
      5 C          63.4972   88.6632   12.6902 C.3     1  UNL1        0.0959
      6 C          62.4593   87.8720   11.9507 C.3     1  UNL1        0.0650
      7 C          64.8551   90.8561   13.0021 C.ar    1  UNL1        0.1536
      8 C          65.2037   90.4987   14.4166 C.ar    1  UNL1        0.0393
      9 C          66.2416   91.2899   15.1561 C.ar    1  UNL1        0.0421
     10 C          66.9309   92.4384   14.4811 C.ar    1  UNL1        0.1705
     11 N          66.5824   92.7958   13.0666 N.ar    1  UNL1       -0.1286
     12 N          65.5444   92.0046   12.3271 N.ar    1  UNL1       -0.1315
     13 N          67.9688   93.2296   15.2205 N.ar    1  UNL1       -0.2698
     14 C          69.1729   92.6696   15.9181 C.ar    1  UNL1        0.1036
     15 C          69.9331   93.8136   16.5210 C.ar    1  UNL1        0.1197
     16 N          69.1988   95.0807   16.1959 N.ar    1  UNL1       -0.2220
     17 C          67.9848   94.7197   15.3922 C.ar    1  UNL1        0.1840
     18 O          60.7035   87.6914   10.0443 O.3     1  UNL1       -0.4791
     19 C          60.3339   86.5910    7.7199 C.ar    1  UNL1        0.1053
     20 C          60.7503   85.6061    6.6680 C.ar    1  UNL1        0.0069
     21 C          61.9526   84.7367    6.8884 C.ar    1  UNL1        0.0001
     22 C          62.7385   84.8522    8.1607 C.ar    1  UNL1        0.0031
     23 C          62.3222   85.8370    9.2127 C.ar    1  UNL1        0.0368
     24 C          61.1199   86.7065    8.9922 C.ar    1  UNL1        0.1422
     25 F          57.9293   88.3298    7.2791 F       1  UNL1       -0.1657
     26 C          59.1316   87.4604    7.4995 C.3     1  UNL1        0.4214
     27 F          58.2350   86.3039    7.8288 F       1  UNL1       -0.1657
     28 F          60.0283   88.6169    7.1701 F       1  UNL1       -0.1657
@<TRIPOS>BOND
     1    25    26    1
     2    26    27    1
     3    26    28    1
     4    26    19    1
     5    19    20   ar
     6    20    21   ar
     7    21    22   ar
     8    22    23   ar
     9    23    24   ar
    10    24    18    1
    11    18     1    1
    12     1     2    1
    13     2     3    1
    14     3     4    1
    15     4     7    1
    16     7     8   ar
    17     8     9   ar
    18     9    10   ar
    19    10    13    1
    20    13    14   ar
    21    14    15   ar
    22    15    16   ar
    23    16    17   ar
    24    10    11   ar
    25    11    12   ar
    26     4     5    1
    27     5     6    1
    28    24    19   ar
    29     6     1    1
    30    12     7   ar
    31    17    13   ar
