@<TRIPOS>MOLECULE
*****
 25 27 0 0 0
SMALL
GASTEIGER

@<TRIPOS>ATOM
      1 C          63.6317   90.8826   11.9825 C.ar    1  UNL1        0.2036
      2 N          64.3558   91.8047   11.0469 N.ar    1  UNL1       -0.2147
      3 C          65.4741   92.6643   11.5571 C.ar    1  UNL1        0.0911
      4 C          65.8685   92.6018   13.0030 C.ar    1  UNL1        0.0801
      5 C          65.1445   91.6796   13.9387 C.ar    1  UNL1        0.2645
      6 O          65.5388   91.6170   15.3845 O.2     1  UNL1       -0.2668
      7 N          64.0261   90.8200   13.4284 N.ar    1  UNL1       -0.2667
      8 C          63.3021   89.8978   14.3640 C.3     1  UNL1        0.1363
      9 C          66.1981   93.5865   10.6215 C.ar    1  UNL1        0.0485
     10 C          65.7849   95.0246   10.5167 C.ar    1  UNL1        0.0244
     11 C          66.5089   95.9468    9.5811 C.ar    1  UNL1        0.0991
     12 N          67.6461   95.4308    8.7502 N.ar    1  UNL1       -0.2400
     13 C          68.0595   93.9927    8.8550 C.ar    1  UNL1        0.1285
     14 C          67.3355   93.0705    9.7906 C.ar    1  UNL1        0.1606
     15 F          67.7487   91.6324    9.8954 F       1  UNL1       -0.2025
     16 C          61.5071   87.6690   11.0289 C.3     1  UNL1        0.1350
     17 C          62.6254   88.5286   11.5391 C.3     1  UNL1        0.1230
     18 N          62.5133   90.0230   11.4722 N.pl3   1  UNL1       -0.2744
     19 C          61.2829   90.6577   10.8951 C.3     1  UNL1        0.1256
     20 C          60.1646   89.7981   10.3848 C.3     1  UNL1        0.1635
     21 O          60.2767   88.3038   10.4517 O.3     1  UNL1       -0.3527
     22 C          61.6192   86.1747   11.0958 C.3     1  UNL1        0.0313
     23 C          62.4655   85.4407   10.0984 C.3     1  UNL1        0.0026
     24 C          62.7498   84.9508    7.5627 C.3     1  UNL1        0.0000
     25 C          62.5493   85.9287    8.6824 C.3     1  UNL1        0.0001
@<TRIPOS>BOND
     1    24    25    1
     2    25    23    1
     3    23    22    1
     4    22    16    1
     5    16    17    1
     6    17    18    1
     7    18     1    1
     8     1     2   ar
     9     2     3   ar
    10     3     9    1
    11     9    10   ar
    12    10    11   ar
    13    11    12   ar
    14    12    13   ar
    15    13    14   ar
    16    14    15    1
    17     3     4   ar
    18     4     5   ar
    19     5     6    2
    20     5     7   ar
    21     7     8    1
    22    18    19    1
    23    19    20    1
    24    20    21    1
    25    21    16    1
    26     7     1   ar
    27    14     9   ar
@<TRIPOS>MOLECULE
*****
 25 27 0 0 0
SMALL
GASTEIGER

@<TRIPOS>ATOM
      1 C          62.7026   88.6628   12.0510 C.ar    1  UNL1        0.2036
      2 N          63.1322   87.2468   12.2969 N.ar    1  UNL1       -0.2147
      3 C          62.4276   86.1182   11.6043 C.ar    1  UNL1        0.0911
      4 C          61.2934   86.4056   10.6656 C.ar    1  UNL1        0.0801
      5 C          60.8638   87.8216   10.4196 C.ar    1  UNL1        0.2645
      6 O          59.7296   88.1090    9.4810 O.2     1  UNL1       -0.2668
      7 N          61.5685   88.9502   11.1124 N.ar    1  UNL1       -0.2667
      8 C          61.1389   90.3662   10.8664 C.3     1  UNL1        0.1363
      9 C          62.8571   84.7023   11.8502 C.ar    1  UNL1        0.0485
     10 C          62.7058   84.0989   13.2151 C.ar    1  UNL1        0.0244
     11 C          63.1353   82.6829   13.4611 C.ar    1  UNL1        0.0991
     12 N          63.7162   81.8703   12.3421 N.ar    1  UNL1       -0.2400
     13 C          63.8676   82.4736   10.9771 C.ar    1  UNL1        0.1285
     14 C          63.4381   83.8896   10.7312 C.ar    1  UNL1        0.1606
     15 F          63.5894   84.4930    9.3662 F       1  UNL1       -0.2025
     16 C          64.8191   91.9695   12.6311 C.3     1  UNL1        0.1350
     17 C          64.1144   90.8409   11.9385 C.3     1  UNL1        0.1230
     18 N          63.4073   89.7914   12.7437 N.pl3   1  UNL1       -0.2744
     19 C          63.4048   89.8704   14.2416 C.3     1  UNL1        0.1256
     20 C          64.1095   90.9989   14.9342 C.3     1  UNL1        0.1635
     21 O          64.8166   92.0485   14.1290 O.3     1  UNL1       -0.3527
     22 C          65.5262   93.0190   11.8258 C.3     1  UNL1        0.0313
     23 C          66.1924   92.6505   10.5334 C.3     1  UNL1        0.0026
     24 C          68.4044   92.3023    9.2158 C.3     1  UNL1        0.0000
     25 C          67.6521   92.3059   10.5136 C.3     1  UNL1        0.0001
@<TRIPOS>BOND
     1    24    25    1
     2    25    23    1
     3    23    22    1
     4    22    16    1
     5    16    17    1
     6    17    18    1
     7    18     1    1
     8     1     2   ar
     9     2     3   ar
    10     3     9    1
    11     9    10   ar
    12    10    11   ar
    13    11    12   ar
    14    12    13   ar
    15    13    14   ar
    16    14    15    1
    17     3     4   ar
    18     4     5   ar
    19     5     6    2
    20     5     7   ar
    21     7     8    1
    22    18    19    1
    23    19    20    1
    24    20    21    1
    25    21    16    1
    26     7     1   ar
    27    14     9   ar
@<TRIPOS>MOLECULE
*****
 25 27 0 0 0
SMALL
GASTEIGER

@<TRIPOS>ATOM
      1 C          62.6508   88.5449   11.6331 C.ar    1  UNL1        0.2036
      2 N          63.1254   87.2152   12.1396 N.ar    1  UNL1       -0.2147
      3 C          62.4149   85.9594   11.7295 C.ar    1  UNL1        0.0911
      4 C          61.2297   86.0333   10.8130 C.ar    1  UNL1        0.0801
      5 C          60.7551   87.3631   10.3066 C.ar    1  UNL1        0.2645
      6 O          59.5700   87.4370    9.3901 O.2     1  UNL1       -0.2668
      7 N          61.4656   88.6189   10.7166 N.ar    1  UNL1       -0.2667
      8 C          60.9910   89.9486   10.2102 C.3     1  UNL1        0.1363
      9 C          62.8895   84.6296   12.2360 C.ar    1  UNL1        0.0485
     10 C          62.6981   84.2645   13.6782 C.ar    1  UNL1        0.0244
     11 C          63.1727   82.9348   14.1846 C.ar    1  UNL1        0.0991
     12 N          63.8388   81.9701   13.2489 N.ar    1  UNL1       -0.2400
     13 C          64.0303   82.3352   11.8066 C.ar    1  UNL1        0.1285
     14 C          63.5556   83.6649   11.3001 C.ar    1  UNL1        0.1606
     15 F          63.7471   84.0300    9.8579 F       1  UNL1       -0.2025
     16 C          64.5134   91.2381   13.8753 C.3     1  UNL1        0.1350
     17 C          63.8029   89.9823   13.4652 C.3     1  UNL1        0.1230
     18 N          63.3613   89.8007   12.0432 N.pl3   1  UNL1       -0.2744
     19 C          63.6302   90.8749   11.0314 C.3     1  UNL1        0.1256
     20 C          64.3407   92.1306   11.4415 C.3     1  UNL1        0.1635
     21 O          64.7823   92.3122   12.8635 O.3     1  UNL1       -0.3527
     22 C          64.9551   91.4197   15.2973 C.3     1  UNL1        0.0313
     23 C          66.1161   92.3152   15.6135 C.3     1  UNL1        0.0026
     24 C          68.6802   92.5233   15.9774 C.3     1  UNL1        0.0000
     25 C          67.5134   91.8719   15.2958 C.3     1  UNL1        0.0001
@<TRIPOS>BOND
     1    24    25    1
     2    25    23    1
     3    23    22    1
     4    22    16    1
     5    16    17    1
     6    17    18    1
     7    18     1    1
     8     1     2   ar
     9     2     3   ar
    10     3     9    1
    11     9    10   ar
    12    10    11   ar
    13    11    12   ar
    14    12    13   ar
    15    13    14   ar
    16    14    15    1
    17     3     4   ar
    18     4     5   ar
    19     5     6    2
    20     5     7   ar
    21     7     8    1
    22    18    19    1
    23    19    20    1
    24    20    21    1
    25    21    16    1
    26     7     1   ar
    27    14     9   ar
@<TRIPOS>MOLECULE
*****
 25 27 0 0 0
SMALL
GASTEIGER

@<TRIPOS>ATOM
      1 C          63.2486   88.5458   12.8380 C.ar    1  UNL1        0.2036
      2 N          63.5068   87.0978   13.1320 N.ar    1  UNL1       -0.2147
      3 C          62.9667   86.0389   12.2172 C.ar    1  UNL1        0.0911
      4 C          62.1683   86.4280   11.0083 C.ar    1  UNL1        0.0801
      5 C          61.9101   87.8761   10.7143 C.ar    1  UNL1        0.2645
      6 O          61.1118   88.2652    9.5055 O.2     1  UNL1       -0.2668
      7 N          62.4503   88.9350   11.6292 N.ar    1  UNL1       -0.2667
      8 C          62.1921   90.3831   11.3352 C.3     1  UNL1        0.1363
      9 C          63.2248   84.5908   12.5112 C.ar    1  UNL1        0.0485
     10 C          63.8645   83.7172   11.4731 C.ar    1  UNL1        0.0244
     11 C          64.1227   82.2691   11.7671 C.ar    1  UNL1        0.0991
     12 N          63.7412   81.6946   13.0991 N.ar    1  UNL1       -0.2400
     13 C          63.1015   82.5682   14.1373 C.ar    1  UNL1        0.1285
     14 C          62.8433   84.0163   13.8433 C.ar    1  UNL1        0.1606
     15 F          62.2037   84.8899   14.8814 F       1  UNL1       -0.2025
     16 C          65.4416   91.5574   14.2059 C.3     1  UNL1        0.1350
     17 C          64.9015   90.4985   13.2911 C.3     1  UNL1        0.1230
     18 N          63.7888   89.6048   13.7529 N.pl3   1  UNL1       -0.2744
     19 C          63.2162   89.7700   15.1294 C.3     1  UNL1        0.1256
     20 C          63.7564   90.8289   16.0442 C.3     1  UNL1        0.1635
     21 O          64.8691   91.7226   15.5825 O.3     1  UNL1       -0.3527
     22 C          66.5544   92.4511   13.7442 C.3     1  UNL1        0.0313
     23 C          66.9036   93.6806   14.5291 C.3     1  UNL1        0.0026
     24 C          68.7099   92.3908   15.8797 C.3     1  UNL1        0.0000
     25 C          67.8051   93.5770   15.7236 C.3     1  UNL1        0.0001
@<TRIPOS>BOND
     1    24    25    1
     2    25    23    1
     3    23    22    1
     4    22    16    1
     5    16    17    1
     6    17    18    1
     7    18     1    1
     8     1     2   ar
     9     2     3   ar
    10     3     9    1
    11     9    10   ar
    12    10    11   ar
    13    11    12   ar
    14    12    13   ar
    15    13    14   ar
    16    14    15    1
    17     3     4   ar
    18     4     5   ar
    19     5     6    2
    20     5     7   ar
    21     7     8    1
    22    18    19    1
    23    19    20    1
    24    20    21    1
    25    21    16    1
    26     7     1   ar
    27    14     9   ar
@<TRIPOS>MOLECULE
*****
 25 27 0 0 0
SMALL
GASTEIGER

@<TRIPOS>ATOM
      1 C          62.4206   88.4407   11.5194 C.ar    1  UNL1        0.2036
      2 N          62.9134   87.0499   11.7889 N.ar    1  UNL1       -0.2147
      3 C          62.2711   85.8806   11.1032 C.ar    1  UNL1        0.0911
      4 C          61.1360   86.1022   10.1479 C.ar    1  UNL1        0.0801
      5 C          60.6432   87.4930    9.8784 C.ar    1  UNL1        0.2645
      6 O          59.5082   87.7146    8.9232 O.2     1  UNL1       -0.2668
      7 N          61.2855   88.6623   10.5642 N.ar    1  UNL1       -0.2667
      8 C          60.7927   90.0532   10.2947 C.3     1  UNL1        0.1363
      9 C          62.7639   84.4897   11.3727 C.ar    1  UNL1        0.0485
     10 C          62.5670   83.8733   12.7259 C.ar    1  UNL1        0.0244
     11 C          63.0598   82.4824   12.9954 C.ar    1  UNL1        0.0991
     12 N          63.7495   81.7080   11.9117 N.ar    1  UNL1       -0.2400
     13 C          63.9464   82.3244   10.5584 C.ar    1  UNL1        0.1285
     14 C          63.4536   83.7153   10.2889 C.ar    1  UNL1        0.1606
     15 F          63.6506   84.3317    8.9357 F       1  UNL1       -0.2025
     16 C          63.8104   90.8062   14.3871 C.3     1  UNL1        0.1350
     17 C          63.1681   89.6369   13.7013 C.3     1  UNL1        0.1230
     18 N          63.0629   89.6100   12.2052 N.pl3   1  UNL1       -0.2744
     19 C          63.6000   90.7524   11.3949 C.3     1  UNL1        0.1256
     20 C          64.2423   91.9216   12.0807 C.3     1  UNL1        0.1635
     21 O          64.3475   91.9485   13.5768 O.3     1  UNL1       -0.3527
     22 C          63.9155   90.8331   15.8831 C.3     1  UNL1        0.0313
     23 C          63.1310   89.8562   16.7078 C.3     1  UNL1        0.0026
     24 C          62.7058   87.4200   17.5045 C.3     1  UNL1        0.0000
     25 C          63.4236   88.3881   16.6114 C.3     1  UNL1        0.0001
@<TRIPOS>BOND
     1    24    25    1
     2    25    23    1
     3    23    22    1
     4    22    16    1
     5    16    17    1
     6    17    18    1
     7    18     1    1
     8     1     2   ar
     9     2     3   ar
    10     3     9    1
    11     9    10   ar
    12    10    11   ar
    13    11    12   ar
    14    12    13   ar
    15    13    14   ar
    16    14    15    1
    17     3     4   ar
    18     4     5   ar
    19     5     6    2
    20     5     7   ar
    21     7     8    1
    22    18    19    1
    23    19    20    1
    24    20    21    1
    25    21    16    1
    26     7     1   ar
    27    14     9   ar
@<TRIPOS>MOLECULE
*****
 25 27 0 0 0
SMALL
GASTEIGER

@<TRIPOS>ATOM
      1 C          62.4373   87.4916   11.4973 C.ar    1  UNL1        0.2036
      2 N          63.3354   88.3930   12.2917 N.ar    1  UNL1       -0.2147
      3 C          63.0712   89.8690   12.3317 C.ar    1  UNL1        0.0911
      4 C          61.9089   90.4437   11.5774 C.ar    1  UNL1        0.0801
      5 C          61.0109   89.5423   10.7831 C.ar    1  UNL1        0.2645
      6 O          59.8486   90.1168   10.0288 O.2     1  UNL1       -0.2668
      7 N          61.2751   88.0662   10.7430 N.ar    1  UNL1       -0.2667
      8 C          60.3770   87.1648    9.9487 C.3     1  UNL1        0.1363
      9 C          63.9693   90.7704   13.1261 C.ar    1  UNL1        0.0485
     10 C          64.0003   90.6690   14.6223 C.ar    1  UNL1        0.0244
     11 C          64.8984   91.5704   15.4166 C.ar    1  UNL1        0.0991
     12 N          65.7654   92.5732   14.7148 N.ar    1  UNL1       -0.2400
     13 C          65.7344   92.6746   13.2185 C.ar    1  UNL1        0.1285
     14 C          64.8363   91.7732   12.4241 C.ar    1  UNL1        0.1606
     15 F          64.8053   91.8746   10.9279 F       1  UNL1       -0.2025
     16 C          63.0606   83.7598   12.6952 C.3     1  UNL1        0.1350
     17 C          62.7964   85.2357   12.7352 C.3     1  UNL1        0.1230
     18 N          62.7016   86.0156   11.4573 N.pl3   1  UNL1       -0.2744
     19 C          62.8710   85.3194   10.1395 C.3     1  UNL1        0.1256
     20 C          63.1352   83.8435   10.0996 C.3     1  UNL1        0.1635
     21 O          63.2300   83.0636   11.3774 O.3     1  UNL1       -0.3527
     22 C          63.1554   82.9799   13.9730 C.3     1  UNL1        0.0313
     23 C          61.9435   82.2852   14.5194 C.3     1  UNL1        0.0026
     24 C          62.3548   80.0817   13.2057 C.3     1  UNL1        0.0000
     25 C          61.4097   81.0605   13.8372 C.3     1  UNL1        0.0001
@<TRIPOS>BOND
     1    24    25    1
     2    25    23    1
     3    23    22    1
     4    22    16    1
     5    16    17    1
     6    17    18    1
     7    18     1    1
     8     1     2   ar
     9     2     3   ar
    10     3     9    1
    11     9    10   ar
    12    10    11   ar
    13    11    12   ar
    14    12    13   ar
    15    13    14   ar
    16    14    15    1
    17     3     4   ar
    18     4     5   ar
    19     5     6    2
    20     5     7   ar
    21     7     8    1
    22    18    19    1
    23    19    20    1
    24    20    21    1
    25    21    16    1
    26     7     1   ar
    27    14     9   ar
@<TRIPOS>MOLECULE
*****
 25 27 0 0 0
SMALL
GASTEIGER

@<TRIPOS>ATOM
      1 C          63.1821   87.2593   12.6464 C.ar    1  UNL1        0.2036
      2 N          63.9489   88.3806   13.2825 N.ar    1  UNL1       -0.2147
      3 C          63.7525   89.7890   12.8053 C.ar    1  UNL1        0.0911
      4 C          62.7893   90.0762   11.6918 C.ar    1  UNL1        0.0801
      5 C          62.0224   88.9549   11.0557 C.ar    1  UNL1        0.2645
      6 O          61.0592   89.2420    9.9423 O.2     1  UNL1       -0.2668
      7 N          62.2189   87.5464   11.5330 N.ar    1  UNL1       -0.2667
      8 C          61.4520   86.4251   10.8969 C.3     1  UNL1        0.1363
      9 C          64.5194   90.9103   13.4414 C.ar    1  UNL1        0.0485
     10 C          65.1948   91.9386   12.5833 C.ar    1  UNL1        0.0244
     11 C          65.9616   93.0599   13.2194 C.ar    1  UNL1        0.0991
     12 N          66.0531   93.1529   14.7137 N.ar    1  UNL1       -0.2400
     13 C          65.3776   92.1246   15.5719 C.ar    1  UNL1        0.1285
     14 C          64.6108   91.0033   14.9358 C.ar    1  UNL1        0.1606
     15 F          63.9354   89.9750   15.7939 F       1  UNL1       -0.2025
     16 C          63.0741   83.2943   12.7759 C.3     1  UNL1        0.1350
     17 C          62.8777   84.7027   12.2987 C.3     1  UNL1        0.1230
     18 N          63.3785   85.8509   13.1238 N.pl3   1  UNL1       -0.2744
     19 C          64.0758   85.5907   14.4261 C.3     1  UNL1        0.1256
     20 C          64.2722   84.1823   14.9034 C.3     1  UNL1        0.1635
     21 O          63.7713   83.0341   14.0783 O.3     1  UNL1       -0.3527
     22 C          62.5733   82.1460   11.9509 C.3     1  UNL1        0.0313
     23 C          62.8495   80.7361   12.3818 C.3     1  UNL1        0.0026
     24 C          60.8667   80.8124   14.0590 C.3     1  UNL1        0.0000
     25 C          62.1138   80.1515   13.5510 C.3     1  UNL1        0.0001
@<TRIPOS>BOND
     1    24    25    1
     2    25    23    1
     3    23    22    1
     4    22    16    1
     5    16    17    1
     6    17    18    1
     7    18     1    1
     8     1     2   ar
     9     2     3   ar
    10     3     9    1
    11     9    10   ar
    12    10    11   ar
    13    11    12   ar
    14    12    13   ar
    15    13    14   ar
    16    14    15    1
    17     3     4   ar
    18     4     5   ar
    19     5     6    2
    20     5     7   ar
    21     7     8    1
    22    18    19    1
    23    19    20    1
    24    20    21    1
    25    21    16    1
    26     7     1   ar
    27    14     9   ar
@<TRIPOS>MOLECULE
*****
 25 27 0 0 0
SMALL
GASTEIGER

@<TRIPOS>ATOM
      1 C          63.5184   87.8566   13.3460 C.ar    1  UNL1        0.2036
      2 N          62.7145   87.8609   12.0797 N.ar    1  UNL1       -0.2147
      3 C          62.3737   86.5661   11.4033 C.ar    1  UNL1        0.0911
      4 C          62.8368   85.2671   11.9933 C.ar    1  UNL1        0.0801
      5 C          63.6408   85.2629   13.2597 C.ar    1  UNL1        0.2645
      6 O          64.1039   83.9639   13.8497 O.2     1  UNL1       -0.2668
      7 N          63.9816   86.5577   13.9360 N.ar    1  UNL1       -0.2667
      8 C          64.7855   86.5535   15.2024 C.3     1  UNL1        0.1363
      9 C          61.5697   86.5703   10.1370 C.ar    1  UNL1        0.0485
     10 C          62.0700   85.8359    8.9285 C.ar    1  UNL1        0.0244
     11 C          61.2661   85.8401    7.6622 C.ar    1  UNL1        0.0991
     12 N          59.9619   86.5788    7.6042 N.ar    1  UNL1       -0.2400
     13 C          59.4615   87.3132    8.8127 C.ar    1  UNL1        0.1285
     14 C          60.2655   87.3090   10.0791 C.ar    1  UNL1        0.1606
     15 F          59.7652   88.0434   11.2875 F       1  UNL1       -0.2025
     16 C          65.0204   91.4752   13.9788 C.3     1  UNL1        0.1350
     17 C          64.6796   90.1804   13.3025 C.3     1  UNL1        0.1230
     18 N          63.8592   89.1515   14.0224 N.pl3   1  UNL1       -0.2744
     19 C          63.3795   89.4173   15.4185 C.3     1  UNL1        0.1256
     20 C          63.7203   90.7121   16.0948 C.3     1  UNL1        0.1635
     21 O          64.5407   91.7410   15.3749 O.3     1  UNL1       -0.3527
     22 C          65.8408   92.5041   13.2589 C.3     1  UNL1        0.0313
     23 C          66.9800   93.1809   13.9618 C.3     1  UNL1        0.0026
     24 C          68.1631   92.3109   16.1050 C.3     1  UNL1        0.0000
     25 C          68.0554   92.3601   14.6097 C.3     1  UNL1        0.0001
@<TRIPOS>BOND
     1    24    25    1
     2    25    23    1
     3    23    22    1
     4    22    16    1
     5    16    17    1
     6    17    18    1
     7    18     1    1
     8     1     2   ar
     9     2     3   ar
    10     3     9    1
    11     9    10   ar
    12    10    11   ar
    13    11    12   ar
    14    12    13   ar
    15    13    14   ar
    16    14    15    1
    17     3     4   ar
    18     4     5   ar
    19     5     6    2
    20     5     7   ar
    21     7     8    1
    22    18    19    1
    23    19    20    1
    24    20    21    1
    25    21    16    1
    26     7     1   ar
    27    14     9   ar
@<TRIPOS>MOLECULE
*****
 25 27 0 0 0
SMALL
GASTEIGER

@<TRIPOS>ATOM
      1 C          63.4902   88.0268   13.0987 C.ar    1  UNL1        0.2036
      2 N          62.6805   87.9664   11.8375 N.ar    1  UNL1       -0.2147
      3 C          62.2859   86.6385   11.2624 C.ar    1  UNL1        0.0911
      4 C          62.7010   85.3708   11.9485 C.ar    1  UNL1        0.0801
      5 C          63.5107   85.4312   13.2098 C.ar    1  UNL1        0.2645
      6 O          63.9258   84.1636   13.8959 O.2     1  UNL1       -0.2668
      7 N          63.9053   86.7592   13.7849 N.ar    1  UNL1       -0.2667
      8 C          64.7149   86.8196   15.0462 C.3     1  UNL1        0.1363
      9 C          61.4762   86.5781   10.0011 C.ar    1  UNL1        0.0485
     10 C          60.1450   87.2657    9.9308 C.ar    1  UNL1        0.0244
     11 C          59.3353   87.2054    8.6696 C.ar    1  UNL1        0.0991
     12 N          59.8569   86.4574    7.4786 N.ar    1  UNL1       -0.2400
     13 C          61.1882   85.7698    7.5488 C.ar    1  UNL1        0.1285
     14 C          61.9979   85.8301    8.8101 C.ar    1  UNL1        0.1606
     15 F          63.3291   85.1425    8.8803 F       1  UNL1       -0.2025
     16 C          64.9364   91.7120   13.3777 C.3     1  UNL1        0.1350
     17 C          64.5418   90.3840   12.8026 C.3     1  UNL1        0.1230
     18 N          63.8847   89.3548   13.6739 N.pl3   1  UNL1       -0.2744
     19 C          63.6222   89.6537   15.1201 C.3     1  UNL1        0.1256
     20 C          64.0167   90.9817   15.6952 C.3     1  UNL1        0.1635
     21 O          64.6739   92.0108   14.8239 O.3     1  UNL1       -0.3527
     22 C          65.5935   92.7412   12.5065 C.3     1  UNL1        0.0313
     23 C          65.7617   92.4840   11.0383 C.3     1  UNL1        0.0026
     24 C          68.0298   92.1072    9.8285 C.3     1  UNL1        0.0000
     25 C          66.9538   93.0335   10.3123 C.3     1  UNL1        0.0001
@<TRIPOS>BOND
     1    24    25    1
     2    25    23    1
     3    23    22    1
     4    22    16    1
     5    16    17    1
     6    17    18    1
     7    18     1    1
     8     1     2   ar
     9     2     3   ar
    10     3     9    1
    11     9    10   ar
    12    10    11   ar
    13    11    12   ar
    14    12    13   ar
    15    13    14   ar
    16    14    15    1
    17     3     4   ar
    18     4     5   ar
    19     5     6    2
    20     5     7   ar
    21     7     8    1
    22    18    19    1
    23    19    20    1
    24    20    21    1
    25    21    16    1
    26     7     1   ar
    27    14     9   ar
