@<TRIPOS>MOLECULE
*****
 34 39 0 0 0
SMALL
GASTEIGER

@<TRIPOS>ATOM
      1 C          57.5387   92.6740   -6.2409 C.3     1  UNL1        0.0903
      2 N          58.5628   93.0384   -5.2072 N.3     1  UNL1       -0.2601
      3 C          57.9034   92.5425   -3.9545 C.3     1  UNL1        0.1187
      4 C          57.7440   92.2642   -2.4892 C.ar    1  UNL1        0.0741
      5 C          56.3974   91.6202   -2.6375 C.ar    1  UNL1        0.1147
      6 N          55.9300   91.2039   -1.2743 N.ar    1  UNL1       -0.2226
      7 C          56.9877   91.5907   -0.2835 C.ar    1  UNL1        0.1786
      8 N          58.1088   92.2460   -1.0343 N.ar    1  UNL1       -0.3070
      9 C          58.9423   92.4906    0.1886 C.3     1  UNL1        0.1341
     10 C          60.1176   92.9608    0.9933 C.ar    1  UNL1        0.0035
     11 C          60.5306   92.9626    2.4758 C.ar    1  UNL1       -0.0015
     12 C          61.7466   93.4642    3.1969 C.ar    1  UNL1        0.0131
     13 C          62.8577   94.1169    2.4294 C.ar    1  UNL1        0.1028
     14 C          62.7531   94.2681    0.9407 C.ar    1  UNL1        0.1545
     15 C          61.4557   93.5849    1.2574 C.ar    1  UNL1        0.0358
     16 O          63.8120   94.9061    0.0913 O.3     1  UNL1       -0.4528
     17 C          64.4714   95.4021   -1.1615 C.ar    1  UNL1        0.1454
     18 C          65.9345   96.1885   -1.6360 C.ar    1  UNL1        0.0375
     19 C          66.4340   96.6184   -2.9834 C.ar    1  UNL1        0.0032
     20 C          65.5998   96.3734   -4.2057 C.ar    1  UNL1        0.0014
     21 C          66.1002   96.8037   -5.5527 C.ar    1  UNL1        0.0001
     22 C          65.2667   96.5591   -6.7757 C.ar    1  UNL1        0.0013
     23 C          63.9329   95.8842   -6.6516 C.ar    1  UNL1        0.0149
     24 C          63.4325   95.4539   -5.3045 C.ar    1  UNL1        0.0539
     25 C          64.2660   95.6985   -4.0816 C.ar    1  UNL1        0.0167
     26 C          64.6308   95.6803   -2.6267 C.ar    1  UNL1        0.0387
     27 N          62.2572   94.9837   -6.1093 N.am    1  UNL1       -0.2575
     28 C          61.7424   94.9215   -7.5168 C.3     1  UNL1        0.1001
     29 C          60.3989   94.2551   -7.4900 C.3     1  UNL1        0.0472
     30 C          59.6217   93.6765   -6.0566 C.3     1  UNL1        0.1373
     31 C          60.9191   94.3596   -6.3734 C.2     1  UNL1        0.2439
     32 O          61.0378   94.5232   -7.1445 O.2     1  UNL1       -0.2731
     33 C          64.0737   94.6185    3.1504 C.1     1  UNL1        0.1035
     34 N          65.2896   95.1201    3.8714 N.1     1  UNL1       -0.1907
@<TRIPOS>BOND
     1     1     2    1
     2     2     3    1
     3     3     4    1
     4     4     5   ar
     5     5     6   ar
     6     6     7   ar
     7     7     8   ar
     8     8     9    1
     9     9    10    1
    10    10    11   ar
    11    11    12   ar
    12    12    13   ar
    13    13    33    1
    14    33    34    3
    15    13    14   ar
    16    14    15   ar
    17    14    16    1
    18    16    17    1
    19    17    18   ar
    20    18    19   ar
    21    19    20   ar
    22    20    21   ar
    23    21    22   ar
    24    22    23   ar
    25    23    24   ar
    26    24    25   ar
    27    25    26   ar
    28    24    27    1
    29    27    28    1
    30    28    29    1
    31    29    30    1
    32    30    31    1
    33    31    32    2
    34    30     2    1
    35     8     4   ar
    36    15    10   ar
    37    26    17   ar
    38    31    27   am
    39    25    20   ar
@<TRIPOS>MOLECULE
*****
 34 39 0 0 0
SMALL
GASTEIGER

@<TRIPOS>ATOM
      1 C          64.3098   94.9091    2.4708 C.3     1  UNL1        0.0903
      2 N          63.4674   94.7356    1.2418 N.3     1  UNL1       -0.2601
      3 C          62.2378   94.0979    1.8176 C.3     1  UNL1        0.1187
      4 C          60.8667   93.4896    1.8262 C.ar    1  UNL1        0.0741
      5 C          60.8559   93.2447    3.3061 C.ar    1  UNL1        0.1147
      6 N          59.5454   92.6070    3.6608 N.ar    1  UNL1       -0.2226
      7 C          58.7462   92.4578    2.4002 C.ar    1  UNL1        0.1786
      8 N          59.5628   93.0032    1.2664 N.ar    1  UNL1       -0.3070
      9 C          58.5247   92.7129    0.2233 C.3     1  UNL1        0.1341
     10 C          57.9103   92.6628   -1.1442 C.ar    1  UNL1        0.0035
     11 C          56.5862   92.1765   -1.7595 C.ar    1  UNL1       -0.0015
     12 C          56.0536   92.1682   -3.1618 C.ar    1  UNL1        0.0131
     13 C          56.8846   92.7180   -4.2830 C.ar    1  UNL1        0.1028
     14 C          58.2483   93.2761   -4.0021 C.ar    1  UNL1        0.1545
     15 C          57.8133   92.8606   -2.6279 C.ar    1  UNL1        0.0358
     16 O          59.1491   93.8460   -5.0572 O.3     1  UNL1       -0.4528
     17 C          60.3787   94.4838   -5.6331 C.ar    1  UNL1        0.1454
     18 C          60.9777   94.9982   -7.1696 C.ar    1  UNL1        0.0375
     19 C          62.2772   95.6370   -7.5610 C.ar    1  UNL1        0.0032
     20 C          63.3147   95.9269   -6.5172 C.ar    1  UNL1        0.0014
     21 C          64.6139   96.5657   -6.9096 C.ar    1  UNL1        0.0001
     22 C          65.6521   96.8560   -5.8665 C.ar    1  UNL1        0.0013
     23 C          65.3911   96.5076   -4.4311 C.ar    1  UNL1        0.0149
     24 C          64.0918   95.8688   -4.0388 C.ar    1  UNL1        0.0539
     25 C          63.0537   95.5785   -5.0819 C.ar    1  UNL1        0.0167
     26 C          61.7498   95.0921   -5.6416 C.ar    1  UNL1        0.0387
     27 N          64.7062   95.9189   -2.6713 N.am    1  UNL1       -0.2575
     28 C          65.9499   96.3530   -1.9538 C.3     1  UNL1        0.1001
     29 C          65.7776   96.0404   -0.4969 C.3     1  UNL1        0.0472
     30 C          64.3682   95.3056    0.1866 C.3     1  UNL1        0.1373
     31 C          64.8033   95.7211   -1.1875 C.2     1  UNL1        0.2439
     32 O          65.5286   96.0491   -1.2299 O.2     1  UNL1       -0.2731
     33 C          56.3520   92.7097   -5.6853 C.1     1  UNL1        0.1035
     34 N          55.8194   92.7014   -7.0874 N.1     1  UNL1       -0.1907
@<TRIPOS>BOND
     1     1     2    1
     2     2     3    1
     3     3     4    1
     4     4     5   ar
     5     5     6   ar
     6     6     7   ar
     7     7     8   ar
     8     8     9    1
     9     9    10    1
    10    10    11   ar
    11    11    12   ar
    12    12    13   ar
    13    13    33    1
    14    33    34    3
    15    13    14   ar
    16    14    15   ar
    17    14    16    1
    18    16    17    1
    19    17    18   ar
    20    18    19   ar
    21    19    20   ar
    22    20    21   ar
    23    21    22   ar
    24    22    23   ar
    25    23    24   ar
    26    24    25   ar
    27    25    26   ar
    28    24    27    1
    29    27    28    1
    30    28    29    1
    31    29    30    1
    32    30    31    1
    33    31    32    2
    34    30     2    1
    35     8     4   ar
    36    15    10   ar
    37    26    17   ar
    38    31    27   am
    39    25    20   ar
