@<TRIPOS>MOLECULE
*****
 27 30 0 0 0
SMALL
GASTEIGER

@<TRIPOS>ATOM
      1 C          61.8999   88.6143   10.9634 C.ar    1  UNL1        0.0434
      2 C          61.0579   88.1699    9.8044 C.ar    1  UNL1        0.0045
      3 C          60.8799   86.7072    9.5239 C.ar    1  UNL1        0.0561
      4 N          61.5439   85.6888   10.4025 N.ar    1  UNL1       -0.2499
      5 C          62.3859   86.1332   11.5617 C.ar    1  UNL1        0.0820
      6 C          63.0499   85.1148   12.4403 C.ar    1  UNL1        0.0191
      7 C          63.8919   85.5592   13.5993 C.ar    1  UNL1        0.0015
      8 C          64.0700   87.0219   13.8798 C.ar    1  UNL1        0.0001
      9 C          63.4060   88.0403   13.0012 C.ar    1  UNL1        0.0027
     10 C          62.5640   87.5959   11.8421 C.ar    1  UNL1        0.0305
     11 C          60.0378   86.2628    8.3648 C.3     1  UNL1        0.0455
     12 C          59.3738   87.2812    7.4862 C.3     1  UNL1        0.0066
     13 C          59.5519   88.7439    7.7666 C.3     1  UNL1        0.0052
     14 C          60.3939   89.1883    8.9257 C.3     1  UNL1        0.0288
     15 N          62.0780   90.0771   11.2439 N.pl3   1  UNL1       -0.3292
     16 H          61.4705   90.5361   11.8680 H       1  UNL1        0.1471
     17 C          63.1815   90.8404   10.5734 C.3     1  UNL1        0.1144
     18 C          66.3238   92.8968   13.0528 C.ar    1  UNL1        0.1724
     19 C          65.3612   91.9459   13.7002 C.ar    1  UNL1        0.0398
     20 C          64.3138   91.2604   12.8737 C.ar    1  UNL1        0.0007
     21 C          64.2290   91.5259   11.3999 C.ar    1  UNL1        0.0006
     22 C          65.1916   92.4768   10.7524 C.ar    1  UNL1        0.0374
     23 C          66.2390   93.1623   11.5789 C.ar    1  UNL1        0.1721
     24 C          67.4932   93.2734   15.3420 C.3     1  UNL1        0.2526
     25 O          67.3712   93.5822   13.8793 O.3     1  UNL1       -0.4684
     26 O          67.2016   94.1132   10.9315 O.3     1  UNL1       -0.4684
     27 C          67.4653   94.0258    9.4574 C.3     1  UNL1        0.2526
@<TRIPOS>BOND
     1    24    25    1
     2    25    18    1
     3    18    19   ar
     4    19    20   ar
     5    20    21   ar
     6    21    17    1
     7    17    15    1
     8    15     1    1
     9     1     2   ar
    10     2     3   ar
    11     3     4   ar
    12     4     5   ar
    13     5     6   ar
    14     6     7   ar
    15     7     8   ar
    16     8     9   ar
    17     9    10   ar
    18     3    11    1
    19    11    12    1
    20    12    13    1
    21    13    14    1
    22    21    22   ar
    23    22    23   ar
    24    23    26    1
    25    26    27    1
    26    23    18   ar
    27    10     1   ar
    28    14     2    1
    29    10     5   ar
    30    15    16    1
@<TRIPOS>MOLECULE
*****
 27 30 0 0 0
SMALL
GASTEIGER

@<TRIPOS>ATOM
      1 C          61.8727   88.5736   10.9398 C.ar    1  UNL1        0.0434
      2 C          62.5306   87.5455   11.8115 C.ar    1  UNL1        0.0045
      3 C          62.3518   86.0859   11.5155 C.ar    1  UNL1        0.0561
      4 N          61.5149   85.6544   10.3479 N.ar    1  UNL1       -0.2499
      5 C          60.8569   86.6826    9.4761 C.ar    1  UNL1        0.0820
      6 C          60.0200   86.2511    8.3084 C.ar    1  UNL1        0.0191
      7 C          59.3620   87.2793    7.4367 C.ar    1  UNL1        0.0015
      8 C          59.5409   88.7389    7.7327 C.ar    1  UNL1        0.0001
      9 C          60.3778   89.1703    8.9003 C.ar    1  UNL1        0.0027
     10 C          61.0357   88.1422    9.7720 C.ar    1  UNL1        0.0305
     11 C          63.0098   85.0577   12.3873 C.3     1  UNL1        0.0455
     12 C          63.8467   85.4892   13.5550 C.3     1  UNL1        0.0066
     13 C          64.0255   86.9488   13.8509 C.3     1  UNL1        0.0052
     14 C          63.3676   87.9769   12.9792 C.3     1  UNL1        0.0288
     15 N          62.0515   90.0332   11.2357 N.pl3   1  UNL1       -0.3292
     16 H          61.4583   90.4809   11.8814 H       1  UNL1        0.1471
     17 C          63.1343   90.8107   10.5478 C.3     1  UNL1        0.1144
     18 C          66.3435   92.8279   12.9732 C.ar    1  UNL1        0.1724
     19 C          65.4126   91.8501   13.6267 C.ar    1  UNL1        0.0398
     20 C          64.3429   91.1777   12.8182 C.ar    1  UNL1        0.0007
     21 C          64.2041   91.4831   11.3563 C.ar    1  UNL1        0.0006
     22 C          65.1350   92.4610   10.7027 C.ar    1  UNL1        0.0374
     23 C          66.2047   93.1334   11.5111 C.ar    1  UNL1        0.1721
     24 C          67.4494   93.3252   15.2709 C.3     1  UNL1        0.2526
     25 O          67.4132   93.5003   13.7816 O.3     1  UNL1       -0.4684
     26 O          67.1357   94.1113   10.8576 O.3     1  UNL1       -0.4684
     27 C          67.5051   93.9448    9.4133 C.3     1  UNL1        0.2526
@<TRIPOS>BOND
     1    24    25    1
     2    25    18    1
     3    18    19   ar
     4    19    20   ar
     5    20    21   ar
     6    21    17    1
     7    17    15    1
     8    15     1    1
     9     1     2   ar
    10     2     3   ar
    11     3     4   ar
    12     4     5   ar
    13     5     6   ar
    14     6     7   ar
    15     7     8   ar
    16     8     9   ar
    17     9    10   ar
    18     3    11    1
    19    11    12    1
    20    12    13    1
    21    13    14    1
    22    21    22   ar
    23    22    23   ar
    24    23    26    1
    25    26    27    1
    26    23    18   ar
    27    10     1   ar
    28    14     2    1
    29    10     5   ar
    30    15    16    1
@<TRIPOS>MOLECULE
*****
 27 30 0 0 0
SMALL
GASTEIGER

@<TRIPOS>ATOM
      1 C          61.8265   88.5899   10.9078 C.ar    1  UNL1        0.0434
      2 C          60.9968   88.1383    9.7427 C.ar    1  UNL1        0.0045
      3 C          60.8462   86.6745    9.4518 C.ar    1  UNL1        0.0561
      4 N          61.5252   85.6623   10.3261 N.ar    1  UNL1       -0.2499
      5 C          62.3550   86.1140   11.4913 C.ar    1  UNL1        0.0820
      6 C          63.0341   85.1019   12.3656 C.ar    1  UNL1        0.0191
      7 C          63.8638   85.5536   13.5307 C.ar    1  UNL1        0.0015
      8 C          64.0144   87.0174   13.8215 C.ar    1  UNL1        0.0001
      9 C          63.3353   88.0295   12.9472 C.ar    1  UNL1        0.0027
     10 C          62.5056   87.5778   11.7821 C.ar    1  UNL1        0.0305
     11 C          60.0164   86.2228    8.2866 C.3     1  UNL1        0.0455
     12 C          59.3373   87.2349    7.4124 C.3     1  UNL1        0.0066
     13 C          59.4880   88.6987    7.7032 C.3     1  UNL1        0.0052
     14 C          60.3177   89.1504    8.8683 C.3     1  UNL1        0.0288
     15 N          61.9771   90.0538   11.1986 N.pl3   1  UNL1       -0.3292
     16 H          61.3476   90.5018   11.8086 H       1  UNL1        0.1471
     17 C          63.0870   90.8350   10.5599 C.3     1  UNL1        0.1144
     18 C          66.2965   92.6844   13.1150 C.ar    1  UNL1        0.1724
     19 C          66.2497   92.9733   11.6439 C.ar    1  UNL1        0.0398
     20 C          65.1799   92.3568   10.7922 C.ar    1  UNL1        0.0007
     21 C          64.1569   91.4514   11.4116 C.ar    1  UNL1        0.0006
     22 C          64.2037   91.1625   12.8828 C.ar    1  UNL1        0.0374
     23 C          65.2735   91.7790   13.7345 C.ar    1  UNL1        0.1721
     24 C          68.4345   92.4380   14.5705 C.3     1  UNL1        0.2526
     25 O          67.3664   93.3009   13.9667 O.3     1  UNL1       -0.4684
     26 O          65.3203   91.4901   15.2057 O.3     1  UNL1       -0.4684
     27 C          64.0501   91.2283   15.9594 C.3     1  UNL1        0.2526
@<TRIPOS>BOND
     1    24    25    1
     2    25    18    1
     3    18    19   ar
     4    19    20   ar
     5    20    21   ar
     6    21    17    1
     7    17    15    1
     8    15     1    1
     9     1     2   ar
    10     2     3   ar
    11     3     4   ar
    12     4     5   ar
    13     5     6   ar
    14     6     7   ar
    15     7     8   ar
    16     8     9   ar
    17     9    10   ar
    18     3    11    1
    19    11    12    1
    20    12    13    1
    21    13    14    1
    22    21    22   ar
    23    22    23   ar
    24    23    26    1
    25    26    27    1
    26    23    18   ar
    27    10     1   ar
    28    14     2    1
    29    10     5   ar
    30    15    16    1
@<TRIPOS>MOLECULE
*****
 27 30 0 0 0
SMALL
GASTEIGER

@<TRIPOS>ATOM
      1 C          63.9076   89.8202   13.5233 C.ar    1  UNL1        0.0434
      2 C          63.1560   89.7247   12.2287 C.ar    1  UNL1        0.0045
      3 C          63.3600   90.7621   11.1647 C.ar    1  UNL1        0.0561
      4 N          64.3156   91.8950   11.3951 N.ar    1  UNL1       -0.2499
      5 C          65.0673   91.9906   12.6897 C.ar    1  UNL1        0.0820
      6 C          66.0229   93.1236   12.9202 C.ar    1  UNL1        0.0191
      7 C          66.7745   93.2191   14.2147 C.ar    1  UNL1        0.0015
      8 C          66.5705   92.1817   15.2788 C.ar    1  UNL1        0.0001
      9 C          65.6149   91.0488   15.0483 C.ar    1  UNL1        0.0027
     10 C          64.8633   90.9532   13.7538 C.ar    1  UNL1        0.0305
     11 C          62.6083   90.6665    9.8701 C.3     1  UNL1        0.0455
     12 C          61.6526   89.5335    9.6396 C.3     1  UNL1        0.0066
     13 C          61.4486   88.4961   10.7036 C.3     1  UNL1        0.0052
     14 C          62.2003   88.5917   11.9982 C.3     1  UNL1        0.0288
     15 N          63.7036   88.7828   14.5873 N.pl3   1  UNL1       -0.3292
     16 H          63.0114   88.9128   15.2752 H       1  UNL1        0.1471
     17 C          64.5543   87.5474   14.6032 C.3     1  UNL1        0.1144
     18 C          62.6342   83.4895   14.2919 C.ar    1  UNL1        0.1724
     19 C          62.9627   84.0625   15.6386 C.ar    1  UNL1        0.0398
     20 C          63.6027   85.4151   15.7424 C.ar    1  UNL1        0.0007
     21 C          63.9143   86.1948   14.4994 C.ar    1  UNL1        0.0006
     22 C          63.5858   85.6218   13.1526 C.ar    1  UNL1        0.0374
     23 C          62.9458   84.2692   13.0488 C.ar    1  UNL1        0.1721
     24 C          62.8300   80.9347   13.8623 C.3     1  UNL1        0.2526
     25 O          61.9942   82.1369   14.1881 O.3     1  UNL1       -0.4684
     26 O          62.6173   83.6962   11.7021 O.3     1  UNL1       -0.4684
     27 C          63.6924   83.0499   10.8795 C.3     1  UNL1        0.2526
@<TRIPOS>BOND
     1    24    25    1
     2    25    18    1
     3    18    19   ar
     4    19    20   ar
     5    20    21   ar
     6    21    17    1
     7    17    15    1
     8    15     1    1
     9     1     2   ar
    10     2     3   ar
    11     3     4   ar
    12     4     5   ar
    13     5     6   ar
    14     6     7   ar
    15     7     8   ar
    16     8     9   ar
    17     9    10   ar
    18     3    11    1
    19    11    12    1
    20    12    13    1
    21    13    14    1
    22    21    22   ar
    23    22    23   ar
    24    23    26    1
    25    26    27    1
    26    23    18   ar
    27    10     1   ar
    28    14     2    1
    29    10     5   ar
    30    15    16    1
@<TRIPOS>MOLECULE
*****
 27 30 0 0 0
SMALL
GASTEIGER

@<TRIPOS>ATOM
      1 C          61.8890   87.5666   11.2390 C.ar    1  UNL1        0.0434
      2 C          62.6551   88.7354   11.7840 C.ar    1  UNL1        0.0045
      3 C          62.5737   90.0691   11.1024 C.ar    1  UNL1        0.0561
      4 N          61.7262   90.2341    9.8758 N.ar    1  UNL1       -0.2499
      5 C          60.9601   89.0653    9.3308 C.ar    1  UNL1        0.0820
      6 C          60.1126   89.2303    8.1042 C.ar    1  UNL1        0.0191
      7 C          59.3465   88.0615    7.5592 C.ar    1  UNL1        0.0015
      8 C          59.4279   86.7278    8.2408 C.ar    1  UNL1        0.0001
      9 C          60.2754   86.5628    9.4673 C.ar    1  UNL1        0.0027
     10 C          61.0415   87.7316   10.0123 C.ar    1  UNL1        0.0305
     11 C          63.3399   91.2379   11.6475 C.3     1  UNL1        0.0455
     12 C          64.1873   91.0729   12.8740 C.3     1  UNL1        0.0066
     13 C          64.2687   89.7392   13.5556 C.3     1  UNL1        0.0052
     14 C          63.5026   88.5705   13.0106 C.3     1  UNL1        0.0288
     15 N          61.9704   86.2329   11.9205 N.pl3   1  UNL1       -0.3292
     16 H          61.2099   85.9049   12.4528 H       1  UNL1        0.1471
     17 C          63.2105   85.3989   11.7911 C.3     1  UNL1        0.1144
     18 C          62.9005   80.9116   11.6580 C.ar    1  UNL1        0.1724
     19 C          63.4675   81.6593   10.4878 C.ar    1  UNL1        0.0398
     20 C          63.5708   83.1550   10.5321 C.ar    1  UNL1        0.0007
     21 C          63.1072   83.9032   11.7467 C.ar    1  UNL1        0.0006
     22 C          62.5401   83.1555   12.9171 C.ar    1  UNL1        0.0374
     23 C          62.4368   81.6597   12.8727 C.ar    1  UNL1        0.1721
     24 C          62.8099   78.7020   10.2945 C.3     1  UNL1        0.2526
     25 O          62.7971   79.4158   11.6136 O.3     1  UNL1       -0.4684
     26 O          61.8698   80.9121   14.0429 O.3     1  UNL1       -0.4684
     27 C          60.3932   80.6619   14.1290 C.3     1  UNL1        0.2526
@<TRIPOS>BOND
     1    24    25    1
     2    25    18    1
     3    18    19   ar
     4    19    20   ar
     5    20    21   ar
     6    21    17    1
     7    17    15    1
     8    15     1    1
     9     1     2   ar
    10     2     3   ar
    11     3     4   ar
    12     4     5   ar
    13     5     6   ar
    14     6     7   ar
    15     7     8   ar
    16     8     9   ar
    17     9    10   ar
    18     3    11    1
    19    11    12    1
    20    12    13    1
    21    13    14    1
    22    21    22   ar
    23    22    23   ar
    24    23    26    1
    25    26    27    1
    26    23    18   ar
    27    10     1   ar
    28    14     2    1
    29    10     5   ar
    30    15    16    1
@<TRIPOS>MOLECULE
*****
 27 30 0 0 0
SMALL
GASTEIGER

@<TRIPOS>ATOM
      1 C          61.8368   87.6130   11.2633 C.ar    1  UNL1        0.0434
      2 C          60.9960   87.7594   10.0298 C.ar    1  UNL1        0.0045
      3 C          60.9488   89.0723    9.3058 C.ar    1  UNL1        0.0561
      4 N          61.7423   90.2387    9.8154 N.ar    1  UNL1       -0.2499
      5 C          62.5831   90.0923   11.0490 C.ar    1  UNL1        0.0820
      6 C          63.3766   91.2588   11.5586 C.ar    1  UNL1        0.0191
      7 C          64.2173   91.1124   12.7921 C.ar    1  UNL1        0.0015
      8 C          64.2646   89.7995   13.5161 C.ar    1  UNL1        0.0001
      9 C          63.4711   88.6330   13.0065 C.ar    1  UNL1        0.0027
     10 C          62.6303   88.7795   11.7730 C.ar    1  UNL1        0.0305
     11 C          60.1079   89.2187    8.0722 C.3     1  UNL1        0.0455
     12 C          59.3145   88.0522    7.5627 C.3     1  UNL1        0.0066
     13 C          59.3617   86.7393    8.2866 C.3     1  UNL1        0.0052
     14 C          60.2025   86.5929    9.5202 C.3     1  UNL1        0.0288
     15 N          61.8841   86.3001   11.9873 N.pl3   1  UNL1       -0.3292
     16 H          61.0759   85.9521   12.4290 H       1  UNL1        0.1471
     17 C          63.1627   85.5174   12.0383 C.3     1  UNL1        0.1144
     18 C          63.1231   81.0888   11.2403 C.ar    1  UNL1        0.1724
     19 C          63.6818   82.0307   10.2153 C.ar    1  UNL1        0.0398
     20 C          63.6950   83.5068   10.4813 C.ar    1  UNL1        0.0007
     21 C          63.1495   84.0412   11.7723 C.ar    1  UNL1        0.0006
     22 C          62.5907   83.0994   12.7974 C.ar    1  UNL1        0.0374
     23 C          62.5775   81.6232   12.5314 C.ar    1  UNL1        0.1721
     24 C          62.7593   79.0997    9.6091 C.3     1  UNL1        0.2526
     25 O          63.1099   79.6127   10.9743 O.3     1  UNL1       -0.4684
     26 O          62.0188   80.6814   13.5565 O.3     1  UNL1       -0.4684
     27 C          60.6507   80.9170   14.1248 C.3     1  UNL1        0.2526
@<TRIPOS>BOND
     1    24    25    1
     2    25    18    1
     3    18    19   ar
     4    19    20   ar
     5    20    21   ar
     6    21    17    1
     7    17    15    1
     8    15     1    1
     9     1     2   ar
    10     2     3   ar
    11     3     4   ar
    12     4     5   ar
    13     5     6   ar
    14     6     7   ar
    15     7     8   ar
    16     8     9   ar
    17     9    10   ar
    18     3    11    1
    19    11    12    1
    20    12    13    1
    21    13    14    1
    22    21    22   ar
    23    22    23   ar
    24    23    26    1
    25    26    27    1
    26    23    18   ar
    27    10     1   ar
    28    14     2    1
    29    10     5   ar
    30    15    16    1
@<TRIPOS>MOLECULE
*****
 27 30 0 0 0
SMALL
GASTEIGER

@<TRIPOS>ATOM
      1 C          63.0515   87.2810   12.4032 C.ar    1  UNL1        0.0434
      2 C          62.2034   87.3979   11.1716 C.ar    1  UNL1        0.0045
      3 C          61.6469   86.1645   10.5243 C.ar    1  UNL1        0.0561
      4 N          61.9386   84.8142   11.1086 N.ar    1  UNL1       -0.2499
      5 C          62.7868   84.6972   12.3403 C.ar    1  UNL1        0.0820
      6 C          63.0784   83.3468   12.9246 C.ar    1  UNL1        0.0191
      7 C          63.9266   83.2299   14.1562 C.ar    1  UNL1        0.0015
      8 C          64.4831   84.4633   14.8035 C.ar    1  UNL1        0.0001
      9 C          64.1914   85.8137   14.2192 C.ar    1  UNL1        0.0027
     10 C          63.3432   85.9306   12.9876 C.ar    1  UNL1        0.0305
     11 C          60.7987   86.2815    9.2926 C.3     1  UNL1        0.0455
     12 C          60.5070   87.6319    8.7083 C.3     1  UNL1        0.0066
     13 C          61.0635   88.8653    9.3557 C.3     1  UNL1        0.0052
     14 C          61.9116   88.7483   10.5873 C.3     1  UNL1        0.0288
     15 N          63.6080   88.5144   13.0506 N.pl3   1  UNL1       -0.3292
     16 H          64.3170   88.4370   13.7292 H       1  UNL1        0.1471
     17 C          63.0841   89.8658   12.6639 C.3     1  UNL1        0.1144
     18 C          65.9481   93.2358   11.8331 C.ar    1  UNL1        0.1724
     19 C          65.0953   92.6867   10.7281 C.ar    1  UNL1        0.0398
     20 C          64.1406   91.5633   11.0050 C.ar    1  UNL1        0.0007
     21 C          64.0388   90.9891   12.3870 C.ar    1  UNL1        0.0006
     22 C          64.8916   91.5383   13.4921 C.ar    1  UNL1        0.0374
     23 C          65.8463   92.6616   13.2151 C.ar    1  UNL1        0.1721
     24 C          66.5954   95.3561   10.4784 C.3     1  UNL1        0.2526
     25 O          66.9028   94.3592   11.5561 O.3     1  UNL1       -0.4684
     26 O          66.6991   93.2107   14.3201 O.3     1  UNL1       -0.4684
     27 C          67.9802   92.5240   14.6909 C.3     1  UNL1        0.2526
@<TRIPOS>BOND
     1    24    25    1
     2    25    18    1
     3    18    19   ar
     4    19    20   ar
     5    20    21   ar
     6    21    17    1
     7    17    15    1
     8    15     1    1
     9     1     2   ar
    10     2     3   ar
    11     3     4   ar
    12     4     5   ar
    13     5     6   ar
    14     6     7   ar
    15     7     8   ar
    16     8     9   ar
    17     9    10   ar
    18     3    11    1
    19    11    12    1
    20    12    13    1
    21    13    14    1
    22    21    22   ar
    23    22    23   ar
    24    23    26    1
    25    26    27    1
    26    23    18   ar
    27    10     1   ar
    28    14     2    1
    29    10     5   ar
    30    15    16    1
@<TRIPOS>MOLECULE
*****
 27 30 0 0 0
SMALL
GASTEIGER

@<TRIPOS>ATOM
      1 C          62.6935   84.5346   13.1069 C.ar    1  UNL1        0.0434
      2 C          62.6154   85.4176   11.8970 C.ar    1  UNL1        0.0045
      3 C          62.6208   84.8118   10.5247 C.ar    1  UNL1        0.0561
      4 N          62.7043   83.3230   10.3625 N.ar    1  UNL1       -0.2499
      5 C          62.7824   82.4398   11.5725 C.ar    1  UNL1        0.0820
      6 C          62.8660   80.9510   11.4103 C.ar    1  UNL1        0.0191
      7 C          62.9441   80.0680   12.6202 C.ar    1  UNL1        0.0015
      8 C          62.9387   80.6738   13.9924 C.ar    1  UNL1        0.0001
      9 C          62.8552   82.1626   14.1547 C.ar    1  UNL1        0.0027
     10 C          62.7771   83.0456   12.9447 C.ar    1  UNL1        0.0305
     11 C          62.5426   85.6949    9.3147 C.3     1  UNL1        0.0455
     12 C          62.4591   87.1838    9.4770 C.3     1  UNL1        0.0066
     13 C          62.4538   87.7895   10.8492 C.3     1  UNL1        0.0052
     14 C          62.5319   86.9065   12.0592 C.3     1  UNL1        0.0288
     15 N          62.6882   85.1403   14.4791 N.pl3   1  UNL1       -0.3292
     16 H          61.8846   85.0727   15.0440 H       1  UNL1        0.1471
     17 C          63.9071   85.8492   14.9908 C.3     1  UNL1        0.1144
     18 C          63.7096   90.2341   15.9826 C.ar    1  UNL1        0.1724
     19 C          63.1085   89.2261   16.9166 C.ar    1  UNL1        0.0398
     20 C          63.1744   87.7645   16.5860 C.ar    1  UNL1        0.0007
     21 C          63.8413   87.3108   15.3214 C.ar    1  UNL1        0.0006
     22 C          64.4425   88.3189   14.3873 C.ar    1  UNL1        0.0374
     23 C          64.3766   89.7805   14.7178 C.ar    1  UNL1        0.1721
     24 C          64.8744   92.4153   16.7797 C.3     1  UNL1        0.2526
     25 O          63.6438   91.6958   16.3131 O.3     1  UNL1       -0.4684
     26 O          64.9777   90.7885   13.7838 O.3     1  UNL1       -0.4684
     27 C          64.1273   91.4373   12.7321 C.3     1  UNL1        0.2526
@<TRIPOS>BOND
     1    24    25    1
     2    25    18    1
     3    18    19   ar
     4    19    20   ar
     5    20    21   ar
     6    21    17    1
     7    17    15    1
     8    15     1    1
     9     1     2   ar
    10     2     3   ar
    11     3     4   ar
    12     4     5   ar
    13     5     6   ar
    14     6     7   ar
    15     7     8   ar
    16     8     9   ar
    17     9    10   ar
    18     3    11    1
    19    11    12    1
    20    12    13    1
    21    13    14    1
    22    21    22   ar
    23    22    23   ar
    24    23    26    1
    25    26    27    1
    26    23    18   ar
    27    10     1   ar
    28    14     2    1
    29    10     5   ar
    30    15    16    1
@<TRIPOS>MOLECULE
*****
 27 30 0 0 0
SMALL
GASTEIGER

@<TRIPOS>ATOM
      1 C          62.5079   88.0553   11.9933 C.ar    1  UNL1        0.0434
      2 C          63.1772   86.9389   12.7387 C.ar    1  UNL1        0.0045
      3 C          63.0843   85.5326   12.2251 C.ar    1  UNL1        0.0561
      4 N          62.3222   85.2428   10.9661 N.ar    1  UNL1       -0.2499
      5 C          61.6529   86.3592   10.2206 C.ar    1  UNL1        0.0820
      6 C          60.8909   86.0693    8.9616 C.ar    1  UNL1        0.0191
      7 C          60.2216   87.1858    8.2162 C.ar    1  UNL1        0.0015
      8 C          60.3145   88.5920    8.7297 C.ar    1  UNL1        0.0001
      9 C          61.0766   88.8819    9.9888 C.ar    1  UNL1        0.0027
     10 C          61.7458   87.7655   10.7342 C.ar    1  UNL1        0.0305
     11 C          63.7536   84.4162   12.9706 C.3     1  UNL1        0.0455
     12 C          64.5157   84.7060   14.2296 C.3     1  UNL1        0.0066
     13 C          64.6085   86.1123   14.7432 C.3     1  UNL1        0.0052
     14 C          63.9393   87.2287   13.9978 C.3     1  UNL1        0.0288
     15 N          62.6008   89.4616   12.5069 N.pl3   1  UNL1       -0.3292
     16 H          61.8585   90.0906   12.3564 H       1  UNL1        0.1471
     17 C          63.8246   89.9095   13.2498 C.3     1  UNL1        0.1144
     18 C          66.2080   93.4196   11.7504 C.ar    1  UNL1        0.1724
     19 C          65.1350   92.8195   10.8909 C.ar    1  UNL1        0.0398
     20 C          64.3406   91.6495   11.3907 C.ar    1  UNL1        0.0007
     21 C          64.6190   91.0795   12.7500 C.ar    1  UNL1        0.0006
     22 C          65.6920   91.6796   13.6095 C.ar    1  UNL1        0.0374
     23 C          66.4865   92.8496   13.1097 C.ar    1  UNL1        0.1721
     24 C          66.4271   95.4933   10.2007 C.3     1  UNL1        0.2526
     25 O          67.0025   94.5897   11.2506 O.3     1  UNL1       -0.4684
     26 O          67.5595   93.4497   13.9691 O.3     1  UNL1       -0.4684
     27 C          67.4868   93.3169   15.4615 C.3     1  UNL1        0.2526
@<TRIPOS>BOND
     1    24    25    1
     2    25    18    1
     3    18    19   ar
     4    19    20   ar
     5    20    21   ar
     6    21    17    1
     7    17    15    1
     8    15     1    1
     9     1     2   ar
    10     2     3   ar
    11     3     4   ar
    12     4     5   ar
    13     5     6   ar
    14     6     7   ar
    15     7     8   ar
    16     8     9   ar
    17     9    10   ar
    18     3    11    1
    19    11    12    1
    20    12    13    1
    21    13    14    1
    22    21    22   ar
    23    22    23   ar
    24    23    26    1
    25    26    27    1
    26    23    18   ar
    27    10     1   ar
    28    14     2    1
    29    10     5   ar
    30    15    16    1
