@<TRIPOS>MOLECULE
*****
 27 29 0 0 0
SMALL
GASTEIGER

@<TRIPOS>ATOM
      1 C          64.6281   92.2379   10.9063 C.ar    1  UNL1        0.1520
      2 C          63.6115   91.7166    9.9344 C.ar    1  UNL1        0.0395
      3 C          62.6954   90.5984   10.3350 C.ar    1  UNL1        0.0190
      4 C          62.7960   90.0015   11.7074 C.ar    1  UNL1        0.0662
      5 C          63.8126   90.5229   12.6793 C.ar    1  UNL1        0.0334
      6 C          64.7286   91.6411   12.2787 C.ar    1  UNL1        0.0836
      7 N          65.7453   92.1625   13.2507 N.pl3   1  UNL1       -0.3023
      8 C          66.0413   93.6318   13.3104 C.3     1  UNL1        0.1082
      9 C          67.0579   94.1532   14.2823 C.3     1  UNL1        0.0938
     10 N          67.7786   93.2053   15.1945 N.3     1  UNL1       -0.2686
     11 C          68.7952   93.7267   16.1664 C.3     1  UNL1        0.0897
     12 C          67.4826   91.7360   15.1348 C.3     1  UNL1        0.0938
     13 C          66.4660   91.2146   14.1628 C.3     1  UNL1        0.1082
     14 C          66.9041   93.0497    9.9519 C.3     1  UNL1        0.2525
     15 O          65.5442   93.3561   10.5057 O.3     1  UNL1       -0.4702
     16 N          61.8799   88.8834   12.1080 N.pl3   1  UNL1       -0.2150
     17 H          61.0349   89.0817   12.5727 H       1  UNL1        0.1737
     18 S          62.2512   87.4630   11.8006 S.O2    1  UNL1        0.0736
     19 O          61.1780   87.4089   10.7540 O.2     1  UNL1       -0.1499
     20 O          63.3244   87.5170   12.8471 O.2     1  UNL1       -0.1499
     21 C          62.6225   86.0425   11.4931 C.ar    1  UNL1        0.1252
     22 C          62.9316   85.0896   12.6095 C.ar    1  UNL1        0.0207
     23 C          63.3029   83.6691   12.3020 C.ar    1  UNL1        0.0081
     24 C          63.3650   83.2016   10.8781 C.ar    1  UNL1        0.0346
     25 BR         63.7363   81.7812   10.5706 Br      1  UNL1       -0.0490
     26 C          63.0559   84.1546    9.7616 C.ar    1  UNL1        0.0081
     27 C          62.6846   85.5750   10.0691 C.ar    1  UNL1        0.0207
@<TRIPOS>BOND
     1    14    15    1
     2    15     1    1
     3     1     2   ar
     4     2     3   ar
     5     3     4   ar
     6     4    16    1
     7    16    18    1
     8    18    19    2
     9    18    20    2
    10    18    21    1
    11    21    22   ar
    12    22    23   ar
    13    23    24   ar
    14    24    25    1
    15    24    26   ar
    16    26    27   ar
    17     4     5   ar
    18     5     6   ar
    19     6     7    1
    20     7     8    1
    21     8     9    1
    22     9    10    1
    23    10    11    1
    24    10    12    1
    25    12    13    1
    26     6     1   ar
    27    13     7    1
    28    27    21   ar
    29    16    17    1
@<TRIPOS>MOLECULE
*****
 27 29 0 0 0
SMALL
GASTEIGER

@<TRIPOS>ATOM
      1 C          64.0307   90.4341   12.7825 C.ar    1  UNL1        0.1520
      2 C          63.0844   89.4122   12.2258 C.ar    1  UNL1        0.0395
      3 C          63.0088   88.0462   12.8409 C.ar    1  UNL1        0.0190
      4 C          63.8796   87.7022   14.0128 C.ar    1  UNL1        0.0662
      5 C          64.8259   88.7241   14.5695 C.ar    1  UNL1        0.0334
      6 C          64.9015   90.0901   13.9544 C.ar    1  UNL1        0.0836
      7 N          65.8479   91.1121   14.5113 N.pl3   1  UNL1       -0.3023
      8 C          67.1757   91.3422   13.8525 C.3     1  UNL1        0.1082
      9 C          68.1221   92.3642   14.4092 C.3     1  UNL1        0.0938
     10 N          67.7407   93.1560   15.6248 N.3     1  UNL1       -0.2686
     11 C          68.6870   94.1779   16.1816 C.3     1  UNL1        0.0897
     12 C          66.4129   92.9258   16.2836 C.3     1  UNL1        0.0938
     13 C          65.4665   91.9038   15.7268 C.3     1  UNL1        0.1082
     14 C          64.7989   91.9926   10.8509 C.3     1  UNL1        0.2525
     15 O          64.1063   91.8001   12.1674 O.3     1  UNL1       -0.4702
     16 N          63.8040   86.3362   14.6279 N.pl3   1  UNL1       -0.2150
     17 H          63.8547   86.2332   15.6057 H       1  UNL1        0.1737
     18 S          63.6513   85.1272   13.7533 S.O2    1  UNL1        0.0736
     19 O          62.1663   85.3362   13.7237 O.2     1  UNL1       -0.1499
     20 O          65.1363   84.9182   13.7829 O.2     1  UNL1       -0.1499
     21 C          63.4985   83.9182   12.8786 C.ar    1  UNL1        0.1252
     22 C          62.7334   82.7266   13.3732 C.ar    1  UNL1        0.0207
     23 C          62.5806   81.5175   12.4985 C.ar    1  UNL1        0.0081
     24 C          63.1929   81.5002   11.1293 C.ar    1  UNL1        0.0346
     25 BR         63.0402   80.2912   10.2547 Br      1  UNL1       -0.0490
     26 C          63.9581   82.6919   10.6348 C.ar    1  UNL1        0.0081
     27 C          64.1109   83.9008   11.5094 C.ar    1  UNL1        0.0207
@<TRIPOS>BOND
     1    14    15    1
     2    15     1    1
     3     1     2   ar
     4     2     3   ar
     5     3     4   ar
     6     4    16    1
     7    16    18    1
     8    18    19    2
     9    18    20    2
    10    18    21    1
    11    21    22   ar
    12    22    23   ar
    13    23    24   ar
    14    24    25    1
    15    24    26   ar
    16    26    27   ar
    17     4     5   ar
    18     5     6   ar
    19     6     7    1
    20     7     8    1
    21     8     9    1
    22     9    10    1
    23    10    11    1
    24    10    12    1
    25    12    13    1
    26     6     1   ar
    27    13     7    1
    28    27    21   ar
    29    16    17    1
@<TRIPOS>MOLECULE
*****
 27 29 0 0 0
SMALL
GASTEIGER

@<TRIPOS>ATOM
      1 C          65.0147   92.7000   11.0435 C.ar    1  UNL1        0.1520
      2 C          63.9927   92.5037    9.9633 C.ar    1  UNL1        0.0395
      3 C          62.9417   91.4434   10.1088 C.ar    1  UNL1        0.0190
      4 C          62.9127   90.5794   11.3346 C.ar    1  UNL1        0.0662
      5 C          63.9347   90.7757   12.4148 C.ar    1  UNL1        0.0334
      6 C          64.9857   91.8360   12.2692 C.ar    1  UNL1        0.0836
      7 N          66.0078   92.0322   13.3495 N.pl3   1  UNL1       -0.3023
      8 C          67.4679   91.8955   13.0343 C.3     1  UNL1        0.1082
      9 C          68.4899   92.0917   14.1145 C.3     1  UNL1        0.0938
     10 N          68.0519   92.4246   15.5100 N.3     1  UNL1       -0.2686
     11 C          69.0739   92.6209   16.5902 C.3     1  UNL1        0.0897
     12 C          66.5917   92.5614   15.8252 C.3     1  UNL1        0.0938
     13 C          65.5697   92.3652   14.7449 C.3     1  UNL1        0.1082
     14 C          65.6802   95.2093   10.9405 C.3     1  UNL1        0.2525
     15 O          66.0657   93.7603   10.8979 O.3     1  UNL1       -0.4702
     16 N          61.8617   89.5191   11.4801 N.pl3   1  UNL1       -0.2150
     17 H          61.2638   89.5227   12.2623 H       1  UNL1        0.1737
     18 S          61.7217   88.4533   10.4340 S.O2    1  UNL1        0.0736
     19 O          62.8903   87.7209   11.0238 O.2     1  UNL1       -0.1499
     20 O          60.5531   89.1857    9.8443 O.2     1  UNL1       -0.1499
     21 C          61.5816   87.3874    9.3879 C.ar    1  UNL1        0.1252
     22 C          62.6849   86.3931    9.1779 C.ar    1  UNL1        0.0207
     23 C          62.5449   85.3272    8.1317 C.ar    1  UNL1        0.0081
     24 C          61.3016   85.2557    7.2957 C.ar    1  UNL1        0.0346
     25 BR         61.1615   84.1898    6.2496 Br      1  UNL1       -0.0490
     26 C          60.1983   86.2500    7.5057 C.ar    1  UNL1        0.0081
     27 C          60.3383   87.3158    8.5518 C.ar    1  UNL1        0.0207
@<TRIPOS>BOND
     1    14    15    1
     2    15     1    1
     3     1     2   ar
     4     2     3   ar
     5     3     4   ar
     6     4    16    1
     7    16    18    1
     8    18    19    2
     9    18    20    2
    10    18    21    1
    11    21    22   ar
    12    22    23   ar
    13    23    24   ar
    14    24    25    1
    15    24    26   ar
    16    26    27   ar
    17     4     5   ar
    18     5     6   ar
    19     6     7    1
    20     7     8    1
    21     8     9    1
    22     9    10    1
    23    10    11    1
    24    10    12    1
    25    12    13    1
    26     6     1   ar
    27    13     7    1
    28    27    21   ar
    29    16    17    1
@<TRIPOS>MOLECULE
*****
 27 29 0 0 0
SMALL
GASTEIGER

@<TRIPOS>ATOM
      1 C          60.8084   89.8371   10.3851 C.ar    1  UNL1        0.1520
      2 C          59.8775   88.8499    9.7458 C.ar    1  UNL1        0.0395
      3 C          60.3924   87.5134    9.3002 C.ar    1  UNL1        0.0190
      4 C          61.8382   87.1640    9.4940 C.ar    1  UNL1        0.0662
      5 C          62.7691   88.1512   10.1333 C.ar    1  UNL1        0.0334
      6 C          62.2542   89.4877   10.5789 C.ar    1  UNL1        0.0836
      7 N          63.1853   90.4749   11.2182 N.pl3   1  UNL1       -0.3023
      8 C          63.4840   90.3826   12.6853 C.3     1  UNL1        0.1082
      9 C          64.4150   91.3697   13.3247 C.3     1  UNL1        0.0938
     10 N          65.0472   92.4492   12.4970 N.3     1  UNL1       -0.2686
     11 C          65.9782   93.4364   13.1364 C.3     1  UNL1        0.0897
     12 C          64.7485   92.5415   11.0299 C.3     1  UNL1        0.0938
     13 C          63.8175   91.5543   10.3906 C.3     1  UNL1        0.1082
     14 C          58.9980   91.2662   11.5809 C.3     1  UNL1        0.2525
     15 O          60.2936   91.1737   10.8307 O.3     1  UNL1       -0.4702
     16 N          62.3530   85.8274    9.0484 N.pl3   1  UNL1       -0.2150
     17 H          62.5406   85.6649    8.0957 H       1  UNL1        0.1737
     18 S          62.5821   84.7386   10.0543 S.O2    1  UNL1        0.0736
     19 O          63.5929   84.1088    9.1424 O.2     1  UNL1       -0.1499
     20 O          61.5713   85.3684   10.9662 O.2     1  UNL1       -0.1499
     21 C          62.8112   83.6497   11.0602 C.ar    1  UNL1        0.1252
     22 C          63.1565   82.2643   10.6004 C.ar    1  UNL1        0.0207
     23 C          63.3856   81.1754   11.6063 C.ar    1  UNL1        0.0081
     24 C          63.2695   81.4720   13.0721 C.ar    1  UNL1        0.0346
     25 BR         63.4986   80.3832   14.0780 Br      1  UNL1       -0.0490
     26 C          62.9242   82.8574   13.5320 C.ar    1  UNL1        0.0081
     27 C          62.6951   83.9462   12.5260 C.ar    1  UNL1        0.0207
@<TRIPOS>BOND
     1    14    15    1
     2    15     1    1
     3     1     2   ar
     4     2     3   ar
     5     3     4   ar
     6     4    16    1
     7    16    18    1
     8    18    19    2
     9    18    20    2
    10    18    21    1
    11    21    22   ar
    12    22    23   ar
    13    23    24   ar
    14    24    25    1
    15    24    26   ar
    16    26    27   ar
    17     4     5   ar
    18     5     6   ar
    19     6     7    1
    20     7     8    1
    21     8     9    1
    22     9    10    1
    23    10    11    1
    24    10    12    1
    25    12    13    1
    26     6     1   ar
    27    13     7    1
    28    27    21   ar
    29    16    17    1
@<TRIPOS>MOLECULE
*****
 27 29 0 0 0
SMALL
GASTEIGER

@<TRIPOS>ATOM
      1 C          61.7541   88.8385   11.1308 C.ar    1  UNL1        0.1520
      2 C          61.0069   87.5390   11.0772 C.ar    1  UNL1        0.0395
      3 C          61.5211   86.3467   11.8281 C.ar    1  UNL1        0.0190
      4 C          62.7825   86.4538   12.6327 C.ar    1  UNL1        0.0662
      5 C          63.5297   87.7533   12.6863 C.ar    1  UNL1        0.0334
      6 C          63.0155   88.9456   11.9354 C.ar    1  UNL1        0.0836
      7 N          63.7628   90.2452   11.9891 N.pl3   1  UNL1       -0.3023
      8 C          63.8887   91.0894   10.7556 C.3     1  UNL1        0.1082
      9 C          64.6359   92.3889   10.8092 C.3     1  UNL1        0.0938
     10 N          65.2574   92.8442   12.0964 N.3     1  UNL1       -0.2686
     11 C          66.0046   94.1437   12.1500 C.3     1  UNL1        0.0897
     12 C          65.1315   91.9999   13.3298 C.3     1  UNL1        0.0938
     13 C          64.3842   90.7004   13.2761 C.3     1  UNL1        0.1082
     14 C          59.9494   90.6761   10.7899 C.3     1  UNL1        0.2525
     15 O          61.2399   90.0309   10.3799 O.3     1  UNL1       -0.4702
     16 N          63.2966   85.2614   13.3836 N.pl3   1  UNL1       -0.2150
     17 H          63.7085   85.3781   14.2701 H       1  UNL1        0.1737
     18 S          63.1833   83.8913   12.7837 S.O2    1  UNL1        0.0736
     19 O          64.0488   84.3217   11.6368 O.2     1  UNL1       -0.1499
     20 O          62.3177   83.4608   13.9307 O.2     1  UNL1       -0.1499
     21 C          63.0699   82.5211   12.1838 C.ar    1  UNL1        0.1252
     22 C          62.5700   81.3772   13.0155 C.ar    1  UNL1        0.0207
     23 C          62.4567   80.0070   12.4156 C.ar    1  UNL1        0.0081
     24 C          62.8432   79.7808   10.9840 C.ar    1  UNL1        0.0346
     25 BR         62.7299   78.4107   10.3841 Br      1  UNL1       -0.0490
     26 C          63.3431   80.9247   10.1524 C.ar    1  UNL1        0.0081
     27 C          63.4565   82.2948   10.7523 C.ar    1  UNL1        0.0207
@<TRIPOS>BOND
     1    14    15    1
     2    15     1    1
     3     1     2   ar
     4     2     3   ar
     5     3     4   ar
     6     4    16    1
     7    16    18    1
     8    18    19    2
     9    18    20    2
    10    18    21    1
    11    21    22   ar
    12    22    23   ar
    13    23    24   ar
    14    24    25    1
    15    24    26   ar
    16    26    27   ar
    17     4     5   ar
    18     5     6   ar
    19     6     7    1
    20     7     8    1
    21     8     9    1
    22     9    10    1
    23    10    11    1
    24    10    12    1
    25    12    13    1
    26     6     1   ar
    27    13     7    1
    28    27    21   ar
    29    16    17    1
@<TRIPOS>MOLECULE
*****
 27 29 0 0 0
SMALL
GASTEIGER

@<TRIPOS>ATOM
      1 C          62.5805   93.6252    0.4155 C.ar    1  UNL1        0.1520
      2 C          61.6968   92.9450    1.4187 C.ar    1  UNL1        0.0395
      3 C          60.3660   92.3970    0.9962 C.ar    1  UNL1        0.0190
      4 C          59.9188   92.5293   -0.4294 C.ar    1  UNL1        0.0662
      5 C          60.8024   93.2095   -1.4326 C.ar    1  UNL1        0.0334
      6 C          62.1333   93.7575   -1.0101 C.ar    1  UNL1        0.0836
      7 N          63.0170   94.4378   -2.0134 N.pl3   1  UNL1       -0.3023
      8 C          63.7490   93.6259   -3.0405 C.3     1  UNL1        0.1082
      9 C          64.6326   94.3060   -4.0437 C.3     1  UNL1        0.0938
     10 N          64.7843   95.7982   -4.0198 N.3     1  UNL1       -0.2686
     11 C          65.6680   96.4784   -5.0230 C.3     1  UNL1        0.0897
     12 C          64.0523   96.6101   -2.9927 C.3     1  UNL1        0.0938
     13 C          63.1686   95.9298   -1.9894 C.3     1  UNL1        0.1082
     14 C          65.1482   93.3379    0.6882 C.3     1  UNL1        0.2525
     15 O          63.9114   94.1732    0.8380 O.3     1  UNL1       -0.4702
     16 N          58.5879   91.9813   -0.8519 N.pl3   1  UNL1       -0.2150
     17 H          58.3349   91.0612   -0.6094 H       1  UNL1        0.1737
     18 S          57.6424   92.8350   -1.6439 S.O2    1  UNL1        0.0736
     19 O          57.8831   91.9802   -2.8527 O.2     1  UNL1       -0.1499
     20 O          57.4018   93.6898   -0.4350 O.2     1  UNL1       -0.1499
     21 C          56.6969   93.6888   -2.4359 C.ar    1  UNL1        0.1252
     22 C          56.8018   93.7352   -3.9315 C.ar    1  UNL1        0.0207
     23 C          55.8563   94.5889   -4.7235 C.ar    1  UNL1        0.0081
     24 C          54.8060   95.3963   -4.0198 C.ar    1  UNL1        0.0346
     25 BR         53.8605   96.2500   -4.8117 Br      1  UNL1       -0.0490
     26 C          54.7012   95.3498   -2.5241 C.ar    1  UNL1        0.0081
     27 C          55.6467   94.4961   -1.7322 C.ar    1  UNL1        0.0207
@<TRIPOS>BOND
     1    14    15    1
     2    15     1    1
     3     1     2   ar
     4     2     3   ar
     5     3     4   ar
     6     4    16    1
     7    16    18    1
     8    18    19    2
     9    18    20    2
    10    18    21    1
    11    21    22   ar
    12    22    23   ar
    13    23    24   ar
    14    24    25    1
    15    24    26   ar
    16    26    27   ar
    17     4     5   ar
    18     5     6   ar
    19     6     7    1
    20     7     8    1
    21     8     9    1
    22     9    10    1
    23    10    11    1
    24    10    12    1
    25    12    13    1
    26     6     1   ar
    27    13     7    1
    28    27    21   ar
    29    16    17    1
@<TRIPOS>MOLECULE
*****
 27 29 0 0 0
SMALL
GASTEIGER

@<TRIPOS>ATOM
      1 C          72.8132   77.9439   14.0352 C.ar    1  UNL1        0.1520
      2 C          72.6019   76.8606   15.0509 C.ar    1  UNL1        0.0395
      3 C          72.0349   75.5374   14.6294 C.ar    1  UNL1        0.0190
      4 C          71.6793   75.2975   13.1921 C.ar    1  UNL1        0.0662
      5 C          71.8906   76.3808   12.1763 C.ar    1  UNL1        0.0334
      6 C          72.4576   77.7040   12.5979 C.ar    1  UNL1        0.0836
      7 N          72.6689   78.7873   11.5820 N.pl3   1  UNL1       -0.3023
      8 C          73.4167   78.4923   10.3156 C.3     1  UNL1        0.1082
      9 C          73.6281   79.5756    9.2998 C.3     1  UNL1        0.0938
     10 N          73.0916   80.9538    9.5504 N.3     1  UNL1       -0.2686
     11 C          73.3030   82.0370    8.5346 C.3     1  UNL1        0.0897
     12 C          72.3438   81.2488   10.8168 C.3     1  UNL1        0.0938
     13 C          72.1325   80.1655   11.8326 C.3     1  UNL1        0.1082
     14 C          72.8112   79.9821   15.6462 C.3     1  UNL1        0.2525
     15 O          73.3802   79.2671   14.4568 O.3     1  UNL1       -0.4702
     16 N          71.1123   73.9743   12.7705 N.pl3   1  UNL1       -0.2150
     17 H          70.6338   73.8943   11.9138 H       1  UNL1        0.1737
     18 S          71.2743   72.7732   13.6542 S.O2    1  UNL1        0.0736
     19 O          69.8926   72.9866   14.1976 O.2     1  UNL1       -0.1499
     20 O          72.6560   72.5598   13.1107 O.2     1  UNL1       -0.1499
     21 C          71.4363   71.5719   14.5379 C.ar    1  UNL1        0.1252
     22 C          71.2036   70.1972   13.9849 C.ar    1  UNL1        0.0207
     23 C          71.3656   68.9959   14.8686 C.ar    1  UNL1        0.0081
     24 C          71.7603   69.1696   16.3053 C.ar    1  UNL1        0.0346
     25 BR         71.9223   67.9684   17.1890 Br      1  UNL1       -0.0490
     26 C          71.9930   70.5444   16.8583 C.ar    1  UNL1        0.0081
     27 C          71.8310   71.7456   15.9746 C.ar    1  UNL1        0.0207
@<TRIPOS>BOND
     1    14    15    1
     2    15     1    1
     3     1     2   ar
     4     2     3   ar
     5     3     4   ar
     6     4    16    1
     7    16    18    1
     8    18    19    2
     9    18    20    2
    10    18    21    1
    11    21    22   ar
    12    22    23   ar
    13    23    24   ar
    14    24    25    1
    15    24    26   ar
    16    26    27   ar
    17     4     5   ar
    18     5     6   ar
    19     6     7    1
    20     7     8    1
    21     8     9    1
    22     9    10    1
    23    10    11    1
    24    10    12    1
    25    12    13    1
    26     6     1   ar
    27    13     7    1
    28    27    21   ar
    29    16    17    1
@<TRIPOS>MOLECULE
*****
 27 29 0 0 0
SMALL
GASTEIGER

@<TRIPOS>ATOM
      1 C          61.9368   93.6417    0.9768 C.ar    1  UNL1        0.1520
      2 C          60.7963   93.0445    1.7465 C.ar    1  UNL1        0.0395
      3 C          59.3847   93.2729    1.2936 C.ar    1  UNL1        0.0190
      4 C          59.1136   94.0984    0.0709 C.ar    1  UNL1        0.0662
      5 C          60.2541   94.6956   -0.6988 C.ar    1  UNL1        0.0334
      6 C          61.6658   94.4672   -0.2458 C.ar    1  UNL1        0.0836
      7 N          62.8063   95.0644   -1.0156 N.pl3   1  UNL1       -0.3023
      8 C          63.2183   94.4684   -2.3290 C.3     1  UNL1        0.1082
      9 C          64.3588   95.0656   -3.0988 C.3     1  UNL1        0.0938
     10 N          65.0874   96.2588   -2.5551 N.3     1  UNL1       -0.2686
     11 C          66.2280   96.8560   -3.3249 C.3     1  UNL1        0.0897
     12 C          64.6755   96.8548   -1.2417 C.3     1  UNL1        0.0938
     13 C          63.5349   96.2576   -0.4719 C.3     1  UNL1        0.1082
     14 C          63.6848   92.2085    2.2577 C.3     1  UNL1        0.2525
     15 O          63.3484   93.4133    1.4298 O.3     1  UNL1       -0.4702
     16 N          57.7020   94.3268   -0.3820 N.pl3   1  UNL1       -0.2150
     17 H          57.0691   94.8048    0.2013 H       1  UNL1        0.1737
     18 S          57.2547   93.8270   -1.7237 S.O2    1  UNL1        0.0736
     19 O          57.6306   92.4297   -1.3285 O.2     1  UNL1       -0.1499
     20 O          56.8787   95.2243   -2.1189 O.2     1  UNL1       -0.1499
     21 C          56.8073   93.3271   -3.0654 C.ar    1  UNL1        0.1252
     22 C          56.5468   94.2980   -4.1787 C.ar    1  UNL1        0.0207
     23 C          56.0995   93.7981   -5.5205 C.ar    1  UNL1        0.0081
     24 C          55.9127   92.3274   -5.7487 C.ar    1  UNL1        0.0346
     25 BR         55.4654   91.8275   -7.0903 Br      1  UNL1       -0.0490
     26 C          56.1732   91.3565   -4.6353 C.ar    1  UNL1        0.0081
     27 C          56.6205   91.8564   -3.2937 C.ar    1  UNL1        0.0207
@<TRIPOS>BOND
     1    14    15    1
     2    15     1    1
     3     1     2   ar
     4     2     3   ar
     5     3     4   ar
     6     4    16    1
     7    16    18    1
     8    18    19    2
     9    18    20    2
    10    18    21    1
    11    21    22   ar
    12    22    23   ar
    13    23    24   ar
    14    24    25    1
    15    24    26   ar
    16    26    27   ar
    17     4     5   ar
    18     5     6   ar
    19     6     7    1
    20     7     8    1
    21     8     9    1
    22     9    10    1
    23    10    11    1
    24    10    12    1
    25    12    13    1
    26     6     1   ar
    27    13     7    1
    28    27    21   ar
    29    16    17    1
@<TRIPOS>MOLECULE
*****
 27 29 0 0 0
SMALL
GASTEIGER

@<TRIPOS>ATOM
      1 C          64.6479   95.3528    0.6792 C.ar    1  UNL1        0.1520
      2 C          65.5860   95.9890   -0.3031 C.ar    1  UNL1        0.0395
      3 C          65.2445   96.0059   -1.7636 C.ar    1  UNL1        0.0190
      4 C          63.9649   95.3864   -2.2419 C.ar    1  UNL1        0.0662
      5 C          63.0267   94.7502   -1.2596 C.ar    1  UNL1        0.0334
      6 C          63.3682   94.7334    0.2010 C.ar    1  UNL1        0.0836
      7 N          62.4299   94.0971    1.1833 N.pl3   1  UNL1       -0.3023
      8 C          62.8417   92.8556    1.9177 C.3     1  UNL1        0.1082
      9 C          61.9035   92.2193    2.9000 C.3     1  UNL1        0.0938
     10 N          60.5535   92.8244    3.1479 N.3     1  UNL1       -0.2686
     11 C          59.6153   92.1881    4.1302 C.3     1  UNL1        0.0897
     12 C          60.1418   94.0659    2.4135 C.3     1  UNL1        0.0938
     13 C          61.0800   94.7022    1.4312 C.3     1  UNL1        0.1082
     14 C          65.1181   96.6256    2.8947 C.3     1  UNL1        0.2525
     15 O          64.9893   95.3359    2.1397 O.3     1  UNL1       -0.4702
     16 N          63.6234   95.4033   -3.7024 N.pl3   1  UNL1       -0.2150
     17 H          64.2964   95.6881   -4.3620 H       1  UNL1        0.1737
     18 S          62.2564   94.9862   -4.1578 S.O2    1  UNL1        0.0736
     19 O          61.7519   96.3784   -3.9185 O.2     1  UNL1       -0.1499
     20 O          62.7609   93.5940   -4.3971 O.2     1  UNL1       -0.1499
     21 C          60.8894   94.5692   -4.6133 C.ar    1  UNL1        0.1252
     22 C          60.4972   94.7287   -6.0523 C.ar    1  UNL1        0.0207
     23 C          59.1302   94.3116   -6.5078 C.ar    1  UNL1        0.0081
     24 C          58.1554   93.7351   -5.5242 C.ar    1  UNL1        0.0346
     25 BR         56.7885   93.3181   -5.9797 Br      1  UNL1       -0.0490
     26 C          58.5476   93.5756   -4.0852 C.ar    1  UNL1        0.0081
     27 C          59.9146   93.9927   -3.6298 C.ar    1  UNL1        0.0207
@<TRIPOS>BOND
     1    14    15    1
     2    15     1    1
     3     1     2   ar
     4     2     3   ar
     5     3     4   ar
     6     4    16    1
     7    16    18    1
     8    18    19    2
     9    18    20    2
    10    18    21    1
    11    21    22   ar
    12    22    23   ar
    13    23    24   ar
    14    24    25    1
    15    24    26   ar
    16    26    27   ar
    17     4     5   ar
    18     5     6   ar
    19     6     7    1
    20     7     8    1
    21     8     9    1
    22     9    10    1
    23    10    11    1
    24    10    12    1
    25    12    13    1
    26     6     1   ar
    27    13     7    1
    28    27    21   ar
    29    16    17    1
