@<TRIPOS>MOLECULE
*****
 51 55 0 0 0
SMALL
GASTEIGER

@<TRIPOS>ATOM
      1 C          60.5148   88.3473    9.2668 C.3     1  UNL1        0.0337
      2 C          59.5426   88.9815    8.3167 C.3     1  UNL1        0.0220
      3 C          58.6869   88.1217    7.4343 C.3     1  UNL1        0.0689
      4 N          58.8034   86.6278    7.5020 N.3     1  UNL1       -0.2970
      5 C          59.7756   85.9936    8.4521 C.3     1  UNL1        0.0780
      6 C          60.6314   86.8533    9.3344 C.3     1  UNL1        0.0964
      7 H          59.0557   86.3095    6.5664 H       1  UNL1        0.1233
      8 C          63.0820   90.9265   11.9139 C.ar    1  UNL1        0.1387
      9 C          63.4706   90.6997   10.4831 C.ar    1  UNL1        0.0366
     10 C          62.6149   89.8399    9.6007 C.ar    1  UNL1       -0.0012
     11 C          61.3705   89.2070   10.1491 C.ar    1  UNL1       -0.0217
     12 C          60.9818   89.4339   11.5801 C.ar    1  UNL1       -0.0012
     13 C          61.8375   90.2936   12.4625 C.ar    1  UNL1        0.0366
     14 O          63.9377   91.7862   12.7963 O.3     1  UNL1       -0.4714
     15 C          65.3208   92.1676   12.3584 C.3     1  UNL1        0.2525
     16 C          65.9837   93.3810   12.9400 C.3     1  UNL1        0.2525
     17 O          67.1208   94.0354   12.2129 O.3     1  UNL1       -0.4697
     18 C          66.1291   96.8535    7.0095 C.3     1  UNL1        0.0311
     19 C          66.3770   96.1489    8.3104 C.ar    1  UNL1       -0.0200
     20 C          66.0373   96.8245    9.6058 C.ar    1  UNL1        0.0103
     21 C          66.2852   96.1199   10.9066 C.ar    1  UNL1        0.0921
     22 CL         65.9454   96.7955   12.2021 Cl      1  UNL1       -0.0791
     23 C          66.8729   94.7399   10.9120 C.ar    1  UNL1        0.1596
     24 C          67.2126   94.0644    9.6166 C.ar    1  UNL1        0.0921
     25 CL         67.8003   92.6843    9.6220 Cl      1  UNL1       -0.0791
     26 C          66.9647   94.7689    8.3158 C.ar    1  UNL1        0.0103
     27 C          61.6036   86.2191   10.2845 C.2     1  UNL1        0.2270
     28 O          61.5201   86.5163   11.7524 O.2     1  UNL1       -0.2748
     29 N          62.6592   85.2879    9.7666 N.am    1  UNL1       -0.2770
     30 C          62.7427   84.9907    8.2987 C.3     1  UNL1        0.0758
     31 C          62.0676   84.6781    6.9962 C.3     1  UNL1        0.0215
     32 C          63.5622   84.7887    7.0588 C.3     1  UNL1        0.0215
     33 C          63.6315   84.6536   10.7166 C.3     1  UNL1        0.1209
     34 C          63.1320   83.7791   11.8282 C.ar    1  UNL1        0.0079
     35 C          62.8981   84.3592   13.1916 C.ar    1  UNL1       -0.0060
     36 C          62.3985   83.4845   14.3032 C.ar    1  UNL1       -0.0207
     37 C          62.1329   82.0299   14.0513 C.ar    1  UNL1       -0.0034
     38 C          62.3668   81.4498   12.6880 C.ar    1  UNL1        0.0108
     39 C          62.8663   82.3244   11.5764 C.ar    1  UNL1        0.0553
     40 CL         63.1002   81.7443   10.2130 Cl      1  UNL1       -0.0825
     41 C          62.1646   84.0646   15.6665 C.3     1  UNL1        0.0476
     42 C          63.1322   85.0604   16.2340 C.3     1  UNL1        0.0941
     43 N          63.0990   86.4866   15.7704 N.am    1  UNL1       -0.3038
     44 C          64.2930   87.0799   15.0833 C.2     1  UNL1        0.2312
     45 O          65.5204   86.2470   14.8596 O.2     1  UNL1       -0.2748
     46 H          62.2935   87.0333   15.9172 H       1  UNL1        0.1494
     47 C          64.2598   88.5061   14.6197 C.3     1  UNL1        0.1880
     48 C          64.0185   89.6099   15.6063 C.3     1  UNL1        0.4063
     49 F          63.7773   90.7138   16.5928 F       1  UNL1       -0.1695
     50 F          65.1547   90.3887   15.0127 F       1  UNL1       -0.1695
     51 F          62.8823   88.8312   16.1998 F       1  UNL1       -0.1695
@<TRIPOS>BOND
     1    18    19    1
     2    19    20   ar
     3    20    21   ar
     4    21    22    1
     5    21    23   ar
     6    23    17    1
     7    17    16    1
     8    16    15    1
     9    15    14    1
    10    14     8    1
    11     8     9   ar
    12     9    10   ar
    13    10    11   ar
    14     1    11    1
    15     1     2    1
    16     2     3    1
    17     3     4    1
    18     4     5    1
    19     5     6    1
    20     6    27    1
    21    27    28    2
    22    27    29   am
    23    29    33    1
    24    33    34    1
    25    34    35   ar
    26    35    36   ar
    27    36    41    1
    28    41    42    1
    29    42    43    1
    30    43    44   am
    31    44    45    2
    32    44    47    1
    33    47    48    1
    34    48    49    1
    35    48    50    1
    36    48    51    1
    37    36    37   ar
    38    37    38   ar
    39    38    39   ar
    40    39    40    1
    41    29    30    1
    42    30    31    1
    43    31    32    1
    44    11    12   ar
    45    12    13   ar
    46    23    24   ar
    47    24    25    1
    48    24    26   ar
    49    26    19   ar
    50    13     8   ar
    51     6     1    1
    52    39    34   ar
    53    32    30    1
    54     4     7    1
    55    43    46    1
@<TRIPOS>MOLECULE
*****
 51 55 0 0 0
SMALL
GASTEIGER

@<TRIPOS>ATOM
      1 C          65.6191   91.6810   14.8583 C.3     1  UNL1        0.0337
      2 C          66.7344   92.2094   15.7109 C.3     1  UNL1        0.0220
      3 C          67.5382   93.3883   15.2484 C.3     1  UNL1        0.0689
      4 N          67.2268   94.0389   13.9332 N.3     1  UNL1       -0.2970
      5 C          66.1115   93.5105   13.0805 C.3     1  UNL1        0.0780
      6 C          65.3077   92.3316   13.5431 C.3     1  UNL1        0.0964
      7 H          68.0765   93.9883   13.3712 H       1  UNL1        0.1233
      8 C          63.2077   88.1442   16.2460 C.ar    1  UNL1        0.1387
      9 C          63.0406   89.4755   16.9166 C.ar    1  UNL1        0.0366
     10 C          63.8444   90.6544   16.4540 C.ar    1  UNL1       -0.0012
     11 C          64.8153   90.5021   15.3209 C.ar    1  UNL1       -0.0217
     12 C          64.9825   89.1707   14.6503 C.ar    1  UNL1       -0.0012
     13 C          64.1786   87.9918   15.1128 C.ar    1  UNL1        0.0366
     14 O          62.4038   86.9653   16.7086 O.3     1  UNL1       -0.4714
     15 C          63.0069   85.5919   16.6885 C.3     1  UNL1        0.2525
     16 C          62.2633   84.4555   16.0516 C.3     1  UNL1        0.2525
     17 O          62.9830   83.1834   15.7147 O.3     1  UNL1       -0.4697
     18 C          64.0246   81.7534    9.9815 C.3     1  UNL1        0.0311
     19 C          63.7642   82.1109   11.4148 C.ar    1  UNL1       -0.0200
     20 C          62.6137   81.4857   12.1466 C.ar    1  UNL1        0.0103
     21 C          62.3533   81.8432   13.5799 C.ar    1  UNL1        0.0921
     22 CL         61.2028   81.2180   14.3117 Cl      1  UNL1       -0.0791
     23 C          63.2434   82.8259   14.2814 C.ar    1  UNL1        0.1596
     24 C          64.3939   83.4510   13.5496 C.ar    1  UNL1        0.0921
     25 CL         65.2840   84.4337   14.2511 Cl      1  UNL1       -0.0791
     26 C          64.6542   83.0935   12.1163 C.ar    1  UNL1        0.0103
     27 C          64.1924   91.8032   12.6904 C.2     1  UNL1        0.2270
     28 O          62.9486   91.2638   13.3322 O.2     1  UNL1       -0.2748
     29 N          64.3211   91.8142   11.1960 N.am    1  UNL1       -0.2770
     30 C          65.5649   92.3536   10.5543 C.3     1  UNL1        0.0758
     31 C          66.3017   93.4808    9.8936 C.3     1  UNL1        0.0215
     32 C          66.9824   92.1607   10.1034 C.3     1  UNL1        0.0215
     33 C          63.2058   91.2858   10.3433 C.3     1  UNL1        0.1209
     34 C          62.3767   90.1317   10.8235 C.ar    1  UNL1        0.0079
     35 C          63.0164   88.7957   11.0600 C.ar    1  UNL1       -0.0060
     36 C          62.1873   87.6416   11.5403 C.ar    1  UNL1       -0.0207
     37 C          60.7184   87.8235   11.7839 C.ar    1  UNL1       -0.0034
     38 C          60.0787   89.1594   11.5474 C.ar    1  UNL1        0.0108
     39 C          60.9078   90.3135   11.0672 C.ar    1  UNL1        0.0553
     40 CL         60.2680   91.6495   10.8307 Cl      1  UNL1       -0.0825
     41 C          62.8270   86.3056   11.7768 C.3     1  UNL1        0.0476
     42 C          62.3533   85.1022   11.0170 C.3     1  UNL1        0.0941
     43 N          61.2598   85.2402    9.9995 N.am    1  UNL1       -0.3038
     44 C          61.5624   85.8123    8.6463 C.2     1  UNL1        0.2312
     45 O          62.9584   86.2464    8.3106 O.2     1  UNL1       -0.2748
     46 H          60.3436   84.9552   10.2198 H       1  UNL1        0.1494
     47 C          60.4689   85.9502    7.6288 C.3     1  UNL1        0.1880
     48 C          59.4993   87.0911    7.7199 C.3     1  UNL1        0.4063
     49 F          58.5296   88.2319    7.8110 F       1  UNL1       -0.1695
     50 F          58.4055   86.2024    7.2064 F       1  UNL1       -0.1695
     51 F          60.5931   87.9799    8.2334 F       1  UNL1       -0.1695
@<TRIPOS>BOND
     1    18    19    1
     2    19    20   ar
     3    20    21   ar
     4    21    22    1
     5    21    23   ar
     6    23    17    1
     7    17    16    1
     8    16    15    1
     9    15    14    1
    10    14     8    1
    11     8     9   ar
    12     9    10   ar
    13    10    11   ar
    14     1    11    1
    15     1     2    1
    16     2     3    1
    17     3     4    1
    18     4     5    1
    19     5     6    1
    20     6    27    1
    21    27    28    2
    22    27    29   am
    23    29    33    1
    24    33    34    1
    25    34    35   ar
    26    35    36   ar
    27    36    41    1
    28    41    42    1
    29    42    43    1
    30    43    44   am
    31    44    45    2
    32    44    47    1
    33    47    48    1
    34    48    49    1
    35    48    50    1
    36    48    51    1
    37    36    37   ar
    38    37    38   ar
    39    38    39   ar
    40    39    40    1
    41    29    30    1
    42    30    31    1
    43    31    32    1
    44    11    12   ar
    45    12    13   ar
    46    23    24   ar
    47    24    25    1
    48    24    26   ar
    49    26    19   ar
    50    13     8   ar
    51     6     1    1
    52    39    34   ar
    53    32    30    1
    54     4     7    1
    55    43    46    1
@<TRIPOS>MOLECULE
*****
 51 55 0 0 0
SMALL
GASTEIGER

@<TRIPOS>ATOM
      1 C          64.6863   90.1830   14.5691 C.3     1  UNL1        0.0337
      2 C          66.0212   90.7635   14.9309 C.3     1  UNL1        0.0220
      3 C          66.4741   92.0497   14.3059 C.3     1  UNL1        0.0689
      4 N          65.5920   92.7554   13.3191 N.3     1  UNL1       -0.2970
      5 C          64.2570   92.1749   12.9572 C.3     1  UNL1        0.0780
      6 C          63.8041   90.8887   13.5823 C.3     1  UNL1        0.0964
      7 H          66.1237   92.8337   12.4522 H       1  UNL1        0.1233
      8 C          63.3279   86.3245   16.4443 C.ar    1  UNL1        0.1387
      9 C          64.1349   86.3007   15.1802 C.ar    1  UNL1        0.0366
     10 C          64.5878   87.5869   14.5551 C.ar    1  UNL1       -0.0012
     11 C          64.2335   88.8968   15.1942 C.ar    1  UNL1       -0.0217
     12 C          63.4264   88.9207   16.4584 C.ar    1  UNL1       -0.0012
     13 C          62.9736   87.6345   17.0834 C.ar    1  UNL1        0.0366
     14 O          62.8750   85.0383   17.0693 O.3     1  UNL1       -0.4714
     15 C          62.2932   83.9525   16.2134 C.3     1  UNL1        0.2525
     16 C          63.0627   83.4325   15.0355 C.3     1  UNL1        0.2525
     17 O          62.5098   83.5892   13.6500 O.3     1  UNL1       -0.4697
     18 C          63.1202   79.1528    9.6568 C.3     1  UNL1        0.0311
     19 C          62.9676   80.2619   10.6551 C.ar    1  UNL1       -0.0200
     20 C          63.3871   81.6567   10.2965 C.ar    1  UNL1        0.0103
     21 C          63.2345   82.7658   11.2948 C.ar    1  UNL1        0.0921
     22 CL         63.6541   84.1606   10.9363 Cl      1  UNL1       -0.0791
     23 C          62.6624   82.4801   12.6517 C.ar    1  UNL1        0.1596
     24 C          62.2429   81.0853   13.0102 C.ar    1  UNL1        0.0921
     25 CL         61.6707   80.7996   14.3671 Cl      1  UNL1       -0.0791
     26 C          62.3955   79.9762   12.0119 C.ar    1  UNL1        0.0103
     27 C          62.4692   90.3082   13.2205 C.2     1  UNL1        0.2270
     28 O          61.5961   89.7141   14.2858 O.2     1  UNL1       -0.2748
     29 N          62.0074   90.3218   11.7935 N.am    1  UNL1       -0.2770
     30 C          62.8805   90.9158   10.7282 C.3     1  UNL1        0.0758
     31 C          64.2009   91.4820   10.2970 C.3     1  UNL1        0.0215
     32 C          63.0722   91.3787    9.3144 C.3     1  UNL1        0.0215
     33 C          60.6724   89.7412   11.4316 C.3     1  UNL1        0.1209
     34 C          60.5655   88.7446   10.3157 C.ar    1  UNL1        0.0079
     35 C          59.9870   89.1570    8.9946 C.ar    1  UNL1       -0.0060
     36 C          59.8802   88.1602    7.8787 C.ar    1  UNL1       -0.0207
     37 C          60.3518   86.7512    8.0840 C.ar    1  UNL1       -0.0034
     38 C          60.9302   86.3388    9.4051 C.ar    1  UNL1        0.0108
     39 C          61.0371   87.3355   10.5209 C.ar    1  UNL1        0.0553
     40 CL         61.6156   86.9231   11.8420 Cl      1  UNL1       -0.0825
     41 C          59.3017   88.5726    6.5576 C.3     1  UNL1        0.0476
     42 C          58.8226   89.9795    6.3550 C.3     1  UNL1        0.0941
     43 N          59.6649   90.9555    5.5882 N.am    1  UNL1       -0.3038
     44 C          59.0119   91.9858    4.7153 C.2     1  UNL1        0.2312
     45 O          57.5166   92.0402    4.6092 O.2     1  UNL1       -0.2748
     46 H          60.6463   90.9198    5.6578 H       1  UNL1        0.1494
     47 C          59.8542   92.9618    3.9485 C.3     1  UNL1        0.1880
     48 C          60.3701   92.5998    2.5872 C.3     1  UNL1        0.4063
     49 F          60.8859   92.2378    1.2261 F       1  UNL1       -0.1695
     50 F          59.0232   92.8971    1.9978 F       1  UNL1       -0.1695
     51 F          61.7169   92.3025    3.1767 F       1  UNL1       -0.1695
@<TRIPOS>BOND
     1    18    19    1
     2    19    20   ar
     3    20    21   ar
     4    21    22    1
     5    21    23   ar
     6    23    17    1
     7    17    16    1
     8    16    15    1
     9    15    14    1
    10    14     8    1
    11     8     9   ar
    12     9    10   ar
    13    10    11   ar
    14     1    11    1
    15     1     2    1
    16     2     3    1
    17     3     4    1
    18     4     5    1
    19     5     6    1
    20     6    27    1
    21    27    28    2
    22    27    29   am
    23    29    33    1
    24    33    34    1
    25    34    35   ar
    26    35    36   ar
    27    36    41    1
    28    41    42    1
    29    42    43    1
    30    43    44   am
    31    44    45    2
    32    44    47    1
    33    47    48    1
    34    48    49    1
    35    48    50    1
    36    48    51    1
    37    36    37   ar
    38    37    38   ar
    39    38    39   ar
    40    39    40    1
    41    29    30    1
    42    30    31    1
    43    31    32    1
    44    11    12   ar
    45    12    13   ar
    46    23    24   ar
    47    24    25    1
    48    24    26   ar
    49    26    19   ar
    50    13     8   ar
    51     6     1    1
    52    39    34   ar
    53    32    30    1
    54     4     7    1
    55    43    46    1
@<TRIPOS>MOLECULE
*****
 51 55 0 0 0
SMALL
GASTEIGER

@<TRIPOS>ATOM
      1 C          65.5914   91.6233   14.8382 C.3     1  UNL1        0.0337
      2 C          66.7281   92.1348   15.6727 C.3     1  UNL1        0.0220
      3 C          67.5294   93.3140   15.2065 C.3     1  UNL1        0.0689
      4 N          67.1941   93.9818   13.9059 N.3     1  UNL1       -0.2970
      5 C          66.0574   93.4703   13.0714 C.3     1  UNL1        0.0780
      6 C          65.2560   92.2911   13.5375 C.3     1  UNL1        0.0964
      7 H          68.0312   93.9325   13.3252 H       1  UNL1        0.1233
      8 C          63.1875   88.0856   16.2366 C.ar    1  UNL1        0.1387
      9 C          64.1570   87.9325   15.1024 C.ar    1  UNL1        0.0366
     10 C          64.9583   89.1117   14.6362 C.ar    1  UNL1       -0.0012
     11 C          64.7901   90.4441   15.3043 C.ar    1  UNL1       -0.0217
     12 C          63.8206   90.5973   16.4387 C.ar    1  UNL1       -0.0012
     13 C          63.0192   89.4181   16.9048 C.ar    1  UNL1        0.0366
     14 O          62.3861   86.9064   16.7028 O.3     1  UNL1       -0.4714
     15 C          62.9614   85.5242   16.6085 C.3     1  UNL1        0.2525
     16 C          62.1670   84.4232   15.9708 C.3     1  UNL1        0.2525
     17 O          62.8165   83.1037   15.6757 O.3     1  UNL1       -0.4697
     18 C          63.9104   81.5014    9.9980 C.3     1  UNL1        0.0311
     19 C          63.6369   81.9020   11.4175 C.ar    1  UNL1       -0.0200
     20 C          64.5348   82.8874   12.1049 C.ar    1  UNL1        0.0103
     21 C          64.2613   83.2880   13.5243 C.ar    1  UNL1        0.0921
     22 CL         65.1593   84.2735   14.2118 Cl      1  UNL1       -0.0791
     23 C          63.0900   82.7031   14.2563 C.ar    1  UNL1        0.1596
     24 C          62.1921   81.7177   13.5688 C.ar    1  UNL1        0.0921
     25 CL         61.0207   81.1327   14.3008 Cl      1  UNL1       -0.0791
     26 C          62.4656   81.3171   12.1494 C.ar    1  UNL1        0.0103
     27 C          64.1194   91.7796   12.7031 C.2     1  UNL1        0.2270
     28 O          62.8840   91.2454   13.3652 O.2     1  UNL1       -0.2748
     29 N          64.2181   91.8024   11.2065 N.am    1  UNL1       -0.2770
     30 C          65.4535   92.3366   10.5445 C.3     1  UNL1        0.0758
     31 C          66.1585   93.4320    9.8006 C.3     1  UNL1        0.0215
     32 C          66.8883   92.1666   10.1415 C.3     1  UNL1        0.0215
     33 C          63.0814   91.2909   10.3720 C.3     1  UNL1        0.1209
     34 C          62.2786   90.1132   10.8392 C.ar    1  UNL1        0.0079
     35 C          62.9433   88.7829   11.0359 C.ar    1  UNL1       -0.0060
     36 C          62.1404   87.6051   11.5031 C.ar    1  UNL1       -0.0207
     37 C          60.6729   87.7576   11.7737 C.ar    1  UNL1       -0.0034
     38 C          60.0083   89.0879   11.5770 C.ar    1  UNL1        0.0108
     39 C          60.8111   90.2656   11.1098 C.ar    1  UNL1        0.0553
     40 CL         60.1464   91.5959   10.9132 Cl      1  UNL1       -0.0825
     41 C          62.8050   86.2749   11.6998 C.3     1  UNL1        0.0476
     42 C          62.2891   85.0648   10.9790 C.3     1  UNL1        0.0941
     43 N          62.7747   84.7528    9.5945 N.am    1  UNL1       -0.3038
     44 C          62.2964   85.5687    8.4303 C.2     1  UNL1        0.2312
     45 O          61.3325   86.6967    8.6505 O.2     1  UNL1       -0.2748
     46 H          63.4074   84.0125    9.4499 H       1  UNL1        0.1494
     47 C          62.7820   85.2567    7.0458 C.3     1  UNL1        0.1880
     48 C          61.9156   84.4713    6.1063 C.3     1  UNL1        0.4063
     49 F          61.0492   83.6860    5.1669 F       1  UNL1       -0.1695
     50 F          63.1204   84.1298    5.2807 F       1  UNL1       -0.1695
     51 F          60.7107   84.8129    6.9319 F       1  UNL1       -0.1695
@<TRIPOS>BOND
     1    18    19    1
     2    19    20   ar
     3    20    21   ar
     4    21    22    1
     5    21    23   ar
     6    23    17    1
     7    17    16    1
     8    16    15    1
     9    15    14    1
    10    14     8    1
    11     8     9   ar
    12     9    10   ar
    13    10    11   ar
    14     1    11    1
    15     1     2    1
    16     2     3    1
    17     3     4    1
    18     4     5    1
    19     5     6    1
    20     6    27    1
    21    27    28    2
    22    27    29   am
    23    29    33    1
    24    33    34    1
    25    34    35   ar
    26    35    36   ar
    27    36    41    1
    28    41    42    1
    29    42    43    1
    30    43    44   am
    31    44    45    2
    32    44    47    1
    33    47    48    1
    34    48    49    1
    35    48    50    1
    36    48    51    1
    37    36    37   ar
    38    37    38   ar
    39    38    39   ar
    40    39    40    1
    41    29    30    1
    42    30    31    1
    43    31    32    1
    44    11    12   ar
    45    12    13   ar
    46    23    24   ar
    47    24    25    1
    48    24    26   ar
    49    26    19   ar
    50    13     8   ar
    51     6     1    1
    52    39    34   ar
    53    32    30    1
    54     4     7    1
    55    43    46    1
@<TRIPOS>MOLECULE
*****
 51 55 0 0 0
SMALL
GASTEIGER

@<TRIPOS>ATOM
      1 C          60.6657   89.4740    9.1117 C.3     1  UNL1        0.0337
      2 C          60.3594   90.0949    7.7811 C.3     1  UNL1        0.0220
      3 C          59.4001   89.4238    6.8434 C.3     1  UNL1        0.0689
      4 N          58.7470   88.1320    7.2363 N.3     1  UNL1       -0.2970
      5 C          59.0532   87.5110    8.5670 C.3     1  UNL1        0.0780
      6 C          60.0126   88.1820    9.5047 C.3     1  UNL1        0.0964
      7 H          59.0008   87.4456    6.5257 H       1  UNL1        0.1233
      8 C          63.5438   91.4871   11.9249 C.ar    1  UNL1        0.1387
      9 C          63.7208   91.6294   10.4422 C.ar    1  UNL1        0.0366
     10 C          62.7615   90.9584    9.5045 C.ar    1  UNL1       -0.0012
     11 C          61.6251   90.1450   10.0495 C.ar    1  UNL1       -0.0217
     12 C          61.4480   90.0027   11.5322 C.ar    1  UNL1       -0.0012
     13 C          62.4074   90.6737   12.4699 C.ar    1  UNL1        0.0366
     14 O          64.5032   92.1581   12.8626 O.3     1  UNL1       -0.4714
     15 C          65.8335   91.5283   13.1520 C.3     1  UNL1        0.2525
     16 C          67.0961   92.3072   12.9304 C.3     1  UNL1        0.2525
     17 O          67.7254   92.3443   11.5694 O.3     1  UNL1       -0.4697
     18 C          66.4859   96.8558    7.8130 C.3     1  UNL1        0.0311
     19 C          66.7958   95.7279    8.7521 C.ar    1  UNL1       -0.0200
     20 C          67.5374   94.5219    8.2568 C.ar    1  UNL1        0.0103
     21 C          67.8473   93.3940    9.1959 C.ar    1  UNL1        0.0921
     22 CL         68.5889   92.1879    8.7006 Cl      1  UNL1       -0.0791
     23 C          67.4155   93.4722   10.6303 C.ar    1  UNL1        0.1596
     24 C          66.6740   94.6783   11.1256 C.ar    1  UNL1        0.0921
     25 CL         66.2422   94.7565   12.5600 Cl      1  UNL1       -0.0791
     26 C          66.3641   95.8062   10.1865 C.ar    1  UNL1        0.0103
     27 C          60.3188   87.5612   10.8354 C.2     1  UNL1        0.2270
     28 O          59.5850   88.0161   12.0620 O.2     1  UNL1       -0.2748
     29 N          61.3590   86.4855   10.9395 N.am    1  UNL1       -0.2770
     30 C          62.0929   86.0306    9.7129 C.3     1  UNL1        0.0758
     31 C          63.3553   85.9598    8.9059 C.3     1  UNL1        0.0215
     32 C          62.1015   85.3136    8.3954 C.3     1  UNL1        0.0215
     33 C          61.6653   85.8646   12.2702 C.3     1  UNL1        0.1209
     34 C          62.7965   84.8880   12.3996 C.ar    1  UNL1        0.0079
     35 C          62.7985   83.6301   11.5825 C.ar    1  UNL1       -0.0060
     36 C          63.9297   82.6535   11.7120 C.ar    1  UNL1       -0.0207
     37 C          65.0589   82.9349   12.6584 C.ar    1  UNL1       -0.0034
     38 C          65.0569   84.1929   13.4754 C.ar    1  UNL1        0.0108
     39 C          63.9257   85.1694   13.3460 C.ar    1  UNL1        0.0553
     40 CL         63.9237   86.4274   14.1630 Cl      1  UNL1       -0.0825
     41 C          63.9317   81.3955   10.8949 C.3     1  UNL1        0.0476
     42 C          63.1764   80.1905   11.3716 C.3     1  UNL1        0.0941
     43 N          61.8585   80.3584   12.0680 N.am    1  UNL1       -0.3038
     44 C          61.8187   80.6289   13.5428 C.2     1  UNL1        0.2312
     45 O          63.0968   80.7316   14.3213 O.2     1  UNL1       -0.2748
     46 H          61.0197   80.2910   11.5571 H       1  UNL1        0.1494
     47 C          60.5008   80.7969   14.2392 C.3     1  UNL1        0.1880
     48 C          59.5125   79.6685   14.2565 C.3     1  UNL1        0.4063
     49 F          58.5243   78.5403   14.2738 F       1  UNL1       -0.1695
     50 F          58.3851   80.6568   14.3024 F       1  UNL1       -0.1695
     51 F          60.6400   78.6803   14.2106 F       1  UNL1       -0.1695
@<TRIPOS>BOND
     1    18    19    1
     2    19    20   ar
     3    20    21   ar
     4    21    22    1
     5    21    23   ar
     6    23    17    1
     7    17    16    1
     8    16    15    1
     9    15    14    1
    10    14     8    1
    11     8     9   ar
    12     9    10   ar
    13    10    11   ar
    14     1    11    1
    15     1     2    1
    16     2     3    1
    17     3     4    1
    18     4     5    1
    19     5     6    1
    20     6    27    1
    21    27    28    2
    22    27    29   am
    23    29    33    1
    24    33    34    1
    25    34    35   ar
    26    35    36   ar
    27    36    41    1
    28    41    42    1
    29    42    43    1
    30    43    44   am
    31    44    45    2
    32    44    47    1
    33    47    48    1
    34    48    49    1
    35    48    50    1
    36    48    51    1
    37    36    37   ar
    38    37    38   ar
    39    38    39   ar
    40    39    40    1
    41    29    30    1
    42    30    31    1
    43    31    32    1
    44    11    12   ar
    45    12    13   ar
    46    23    24   ar
    47    24    25    1
    48    24    26   ar
    49    26    19   ar
    50    13     8   ar
    51     6     1    1
    52    39    34   ar
    53    32    30    1
    54     4     7    1
    55    43    46    1
@<TRIPOS>MOLECULE
*****
 51 55 0 0 0
SMALL
GASTEIGER

@<TRIPOS>ATOM
      1 C          60.5561   88.8900    9.1997 C.3     1  UNL1        0.0337
      2 C          59.7533   89.5949    8.1469 C.3     1  UNL1        0.0220
      3 C          58.8250   88.8148    7.2639 C.3     1  UNL1        0.0689
      4 N          58.6995   87.3298    7.4337 N.3     1  UNL1       -0.2970
      5 C          59.5023   86.6248    8.4866 C.3     1  UNL1        0.0780
      6 C          60.4307   87.4048    9.3696 C.3     1  UNL1        0.0964
      7 H          58.9521   86.9088    6.5397 H       1  UNL1        0.1233
      8 C          63.3411   91.2302   11.8488 C.ar    1  UNL1        0.1387
      9 C          63.5287   91.2492   10.3607 C.ar    1  UNL1        0.0366
     10 C          62.6004   90.4691    9.4777 C.ar    1  UNL1       -0.0012
     11 C          61.4845   89.6700   10.0828 C.ar    1  UNL1       -0.0217
     12 C          61.2968   89.6510   11.5709 C.ar    1  UNL1       -0.0012
     13 C          62.2251   90.4311   12.4539 C.ar    1  UNL1        0.0366
     14 O          64.2694   92.0102   12.7318 O.3     1  UNL1       -0.4714
     15 C          65.6236   91.4598   13.0684 C.3     1  UNL1        0.2525
     16 C          66.8342   92.3413   12.9819 C.3     1  UNL1        0.2525
     17 O          67.6149   92.4199   11.7035 O.3     1  UNL1       -0.4697
     18 C          66.5208   96.8314    7.7866 C.3     1  UNL1        0.0311
     19 C          66.7943   95.7285    8.7658 C.ar    1  UNL1       -0.0200
     20 C          66.3617   95.8702   10.1951 C.ar    1  UNL1        0.0103
     21 C          66.6353   94.7673   11.1743 C.ar    1  UNL1        0.0921
     22 CL         66.2027   94.9090   12.6036 Cl      1  UNL1       -0.0791
     23 C          67.3413   93.5228   10.7243 C.ar    1  UNL1        0.1596
     24 C          67.7739   93.3811    9.2950 C.ar    1  UNL1        0.0921
     25 CL         68.4800   92.1366    8.8449 Cl      1  UNL1       -0.0791
     26 C          67.5004   94.4840    8.3158 C.ar    1  UNL1        0.0103
     27 C          61.2335   86.6999   10.4224 C.2     1  UNL1        0.2270
     28 O          60.9462   86.9450   11.8741 O.2     1  UNL1       -0.2748
     29 N          62.3235   85.7498   10.0235 N.am    1  UNL1       -0.2770
     30 C          62.6108   85.5048    8.5719 C.3     1  UNL1        0.0758
     31 C          62.1721   85.0058    7.2271 C.3     1  UNL1        0.0215
     32 C          63.5470   85.5792    7.4023 C.3     1  UNL1        0.0215
     33 C          63.1264   85.0448   11.0764 C.3     1  UNL1        0.1209
     34 C          63.0376   83.5538   11.2142 C.ar    1  UNL1        0.0079
     35 C          62.1616   82.9492   12.2711 C.ar    1  UNL1       -0.0060
     36 C          62.0728   81.4581   12.4089 C.ar    1  UNL1       -0.0207
     37 C          62.8601   80.5718   11.4899 C.ar    1  UNL1       -0.0034
     38 C          63.7361   81.1765   10.4330 C.ar    1  UNL1        0.0108
     39 C          63.8249   82.6674   10.2952 C.ar    1  UNL1        0.0553
     40 CL         64.7009   83.2721    9.2383 Cl      1  UNL1       -0.0825
     41 C          61.1968   80.8534   13.4658 C.3     1  UNL1        0.0476
     42 C          61.4273   81.1842   14.9106 C.3     1  UNL1        0.0941
     43 N          62.1220   82.4594   15.2865 N.am    1  UNL1       -0.3038
     44 C          63.6085   82.5793   15.1256 C.2     1  UNL1        0.2312
     45 O          64.4004   81.4239   14.5889 O.2     1  UNL1       -0.2748
     46 H          61.6023   83.2177   15.6387 H       1  UNL1        0.1494
     47 C          64.3032   83.8545   15.5015 C.3     1  UNL1        0.1880
     48 C          64.1388   85.0776   14.6488 C.3     1  UNL1        0.4063
     49 F          63.9744   86.3006   13.7961 F       1  UNL1       -0.1695
     50 F          65.1398   84.5324   13.6739 F       1  UNL1       -0.1695
     51 F          63.1377   85.6228   15.6238 F       1  UNL1       -0.1695
@<TRIPOS>BOND
     1    18    19    1
     2    19    20   ar
     3    20    21   ar
     4    21    22    1
     5    21    23   ar
     6    23    17    1
     7    17    16    1
     8    16    15    1
     9    15    14    1
    10    14     8    1
    11     8     9   ar
    12     9    10   ar
    13    10    11   ar
    14     1    11    1
    15     1     2    1
    16     2     3    1
    17     3     4    1
    18     4     5    1
    19     5     6    1
    20     6    27    1
    21    27    28    2
    22    27    29   am
    23    29    33    1
    24    33    34    1
    25    34    35   ar
    26    35    36   ar
    27    36    41    1
    28    41    42    1
    29    42    43    1
    30    43    44   am
    31    44    45    2
    32    44    47    1
    33    47    48    1
    34    48    49    1
    35    48    50    1
    36    48    51    1
    37    36    37   ar
    38    37    38   ar
    39    38    39   ar
    40    39    40    1
    41    29    30    1
    42    30    31    1
    43    31    32    1
    44    11    12   ar
    45    12    13   ar
    46    23    24   ar
    47    24    25    1
    48    24    26   ar
    49    26    19   ar
    50    13     8   ar
    51     6     1    1
    52    39    34   ar
    53    32    30    1
    54     4     7    1
    55    43    46    1
@<TRIPOS>MOLECULE
*****
 51 55 0 0 0
SMALL
GASTEIGER

@<TRIPOS>ATOM
      1 C          64.1241   90.3534   13.4791 C.3     1  UNL1        0.0337
      2 C          64.8948   91.6075   13.7673 C.3     1  UNL1        0.0220
      3 C          65.1508   92.5991   12.6714 C.3     1  UNL1        0.0689
      4 N          64.6359   92.3366   11.2872 N.3     1  UNL1       -0.2970
      5 C          63.8651   91.0825   10.9989 C.3     1  UNL1        0.0780
      6 C          63.6092   90.0909   12.0949 C.3     1  UNL1        0.0964
      7 H          65.4460   92.3334   10.6674 H       1  UNL1        0.1233
      8 C          63.3563   87.3785   16.7671 C.ar    1  UNL1        0.1387
      9 C          64.1856   86.9871   15.5801 C.ar    1  UNL1        0.0366
     10 C          64.4415   87.9787   14.4841 C.ar    1  UNL1       -0.0012
     11 C          63.8681   89.3618   14.5751 C.ar    1  UNL1       -0.0217
     12 C          63.0388   89.7533   15.7622 C.ar    1  UNL1       -0.0012
     13 C          62.7829   88.7616   16.8581 C.ar    1  UNL1        0.0366
     14 O          63.1003   86.3869   17.8631 O.3     1  UNL1       -0.4714
     15 C          62.4696   85.0636   17.5450 C.3     1  UNL1        0.2525
     16 C          62.4171   84.5795   16.1262 C.3     1  UNL1        0.2525
     17 O          63.0669   83.2803   15.7524 O.3     1  UNL1       -0.4697
     18 C          63.9361   81.9134    9.9752 C.3     1  UNL1        0.0311
     19 C          63.7188   82.2551   11.4195 C.ar    1  UNL1       -0.0200
     20 C          62.5718   81.6459   12.1700 C.ar    1  UNL1        0.0103
     21 C          62.3545   81.9877   13.6143 C.ar    1  UNL1        0.0921
     22 CL         61.2075   81.3784   14.3648 Cl      1  UNL1       -0.0791
     23 C          63.2842   82.9386   14.3081 C.ar    1  UNL1        0.1596
     24 C          64.4312   83.5478   13.5576 C.ar    1  UNL1        0.0921
     25 CL         65.3609   84.4988   14.2514 Cl      1  UNL1       -0.0791
     26 C          64.6484   83.2061   12.1133 C.ar    1  UNL1        0.0103
     27 C          62.8384   88.8368   11.8067 C.2     1  UNL1        0.2270
     28 O          63.5381   87.5099   11.8057 O.2     1  UNL1       -0.2748
     29 N          61.3680   88.9095   11.5195 N.am    1  UNL1       -0.2770
     30 C          60.6683   90.2363   11.5205 C.3     1  UNL1        0.0758
     31 C          60.7249   91.7347   11.4823 C.3     1  UNL1        0.0215
     32 C          59.3999   91.0359   11.5605 C.3     1  UNL1        0.0215
     33 C          60.5972   87.6553   11.2313 C.3     1  UNL1        0.1209
     34 C          60.5136   87.1322    9.8280 C.ar    1  UNL1        0.0079
     35 C          59.8126   87.9317    8.7700 C.ar    1  UNL1       -0.0060
     36 C          59.7290   87.4085    7.3666 C.ar    1  UNL1       -0.0207
     37 C          60.3463   86.0858    7.0214 C.ar    1  UNL1       -0.0034
     38 C          61.0473   85.2862    8.0794 C.ar    1  UNL1        0.0108
     39 C          61.1309   85.8094    9.4827 C.ar    1  UNL1        0.0553
     40 CL         61.8318   85.0098   10.5407 Cl      1  UNL1       -0.0825
     41 C          59.0281   88.2081    6.3086 C.3     1  UNL1        0.0476
     42 C          58.7691   89.6701    6.5217 C.3     1  UNL1        0.0941
     43 N          59.5732   90.6911    5.7728 N.am    1  UNL1       -0.3038
     44 C          58.8788   91.7800    5.0097 C.2     1  UNL1        0.2312
     45 O          57.3804   91.8478    4.9956 O.2     1  UNL1       -0.2748
     46 H          60.5566   90.6467    5.7820 H       1  UNL1        0.1494
     47 C          59.6829   92.8010    4.2607 C.3     1  UNL1        0.1880
     48 C          60.2826   92.4545    2.9302 C.3     1  UNL1        0.4063
     49 F          60.8824   92.1080    1.5997 F       1  UNL1       -0.1695
     50 F          61.5453   92.0190    3.6128 F       1  UNL1       -0.1695
     51 F          59.0200   92.8900    2.2475 F       1  UNL1       -0.1695
@<TRIPOS>BOND
     1    18    19    1
     2    19    20   ar
     3    20    21   ar
     4    21    22    1
     5    21    23   ar
     6    23    17    1
     7    17    16    1
     8    16    15    1
     9    15    14    1
    10    14     8    1
    11     8     9   ar
    12     9    10   ar
    13    10    11   ar
    14     1    11    1
    15     1     2    1
    16     2     3    1
    17     3     4    1
    18     4     5    1
    19     5     6    1
    20     6    27    1
    21    27    28    2
    22    27    29   am
    23    29    33    1
    24    33    34    1
    25    34    35   ar
    26    35    36   ar
    27    36    41    1
    28    41    42    1
    29    42    43    1
    30    43    44   am
    31    44    45    2
    32    44    47    1
    33    47    48    1
    34    48    49    1
    35    48    50    1
    36    48    51    1
    37    36    37   ar
    38    37    38   ar
    39    38    39   ar
    40    39    40    1
    41    29    30    1
    42    30    31    1
    43    31    32    1
    44    11    12   ar
    45    12    13   ar
    46    23    24   ar
    47    24    25    1
    48    24    26   ar
    49    26    19   ar
    50    13     8   ar
    51     6     1    1
    52    39    34   ar
    53    32    30    1
    54     4     7    1
    55    43    46    1
@<TRIPOS>MOLECULE
*****
 51 55 0 0 0
SMALL
GASTEIGER

@<TRIPOS>ATOM
      1 C          60.4061   89.1852    8.9979 C.3     1  UNL1        0.0337
      2 C          59.8884   89.9931    7.8450 C.3     1  UNL1        0.0220
      3 C          58.9941   89.3551    6.8237 C.3     1  UNL1        0.0689
      4 N          58.6174   87.9092    6.9553 N.3     1  UNL1       -0.2970
      5 C          59.1351   87.1012    8.1082 C.3     1  UNL1        0.0780
      6 C          60.0294   87.7392    9.1296 C.3     1  UNL1        0.0964
      7 H          58.9334   87.4440    6.1043 H       1  UNL1        0.1233
      8 C          63.0891   91.0992   12.0619 C.ar    1  UNL1        0.1387
      9 C          61.7807   90.4978   12.4818 C.ar    1  UNL1        0.0366
     10 C          60.8864   89.8598   11.4605 C.ar    1  UNL1       -0.0012
     11 C          61.3004   89.8232   10.0193 C.ar    1  UNL1       -0.0217
     12 C          62.6089   90.4246    9.5993 C.ar    1  UNL1       -0.0012
     13 C          63.5032   91.0626   10.6207 C.ar    1  UNL1        0.0366
     14 O          63.9834   91.7372   13.0833 O.3     1  UNL1       -0.4714
     15 C          65.3984   92.0859   12.7279 C.3     1  UNL1        0.2525
     16 C          65.9115   93.4748   12.9680 C.3     1  UNL1        0.2525
     17 O          67.0873   93.9851   12.1889 O.3     1  UNL1       -0.4697
     18 C          66.2248   96.8528    6.9896 C.3     1  UNL1        0.0311
     19 C          66.4404   96.1359    8.2895 C.ar    1  UNL1       -0.0200
     20 C          66.1637   96.8358    9.5869 C.ar    1  UNL1        0.0103
     21 C          66.3794   96.1189   10.8867 C.ar    1  UNL1        0.0921
     22 CL         66.1026   96.8189   12.1843 Cl      1  UNL1       -0.0791
     23 C          66.8717   94.7020   10.8891 C.ar    1  UNL1        0.1596
     24 C          67.1484   94.0021    9.5916 C.ar    1  UNL1        0.0921
     25 CL         67.6408   92.5851    9.5939 Cl      1  UNL1       -0.0791
     26 C          66.9328   94.7190    8.2918 C.ar    1  UNL1        0.0103
     27 C          60.5471   86.9312   10.2825 C.2     1  UNL1        0.2270
     28 O          60.0962   87.2425   11.6788 O.2     1  UNL1       -0.2748
     29 N          61.5156   85.8121   10.0390 N.am    1  UNL1       -0.2770
     30 C          61.9665   85.5008    8.6426 C.3     1  UNL1        0.0758
     31 C          61.6434   85.2345    7.2023 C.3     1  UNL1        0.0215
     32 C          63.0704   85.2280    7.6645 C.3     1  UNL1        0.0215
     33 C          62.0333   85.0041   11.1919 C.3     1  UNL1        0.1209
     34 C          62.7289   85.6854   12.3329 C.ar    1  UNL1        0.0079
     35 C          62.8514   84.9929   13.6578 C.ar    1  UNL1       -0.0060
     36 C          63.5471   85.6743   14.7988 C.ar    1  UNL1       -0.0207
     37 C          64.1203   87.0482   14.6148 C.ar    1  UNL1       -0.0034
     38 C          63.9978   87.7407   13.2899 C.ar    1  UNL1        0.0108
     39 C          63.3022   87.0594   12.1489 C.ar    1  UNL1        0.0553
     40 CL         63.1797   87.7519   10.8240 Cl      1  UNL1       -0.0825
     41 C          63.6696   84.9818   16.1237 C.3     1  UNL1        0.0476
     42 C          63.7279   83.4842   16.1846 C.3     1  UNL1        0.0941
     43 N          64.1587   82.7008   14.9802 N.am    1  UNL1       -0.3038
     44 C          63.1490   81.9187   14.1937 C.2     1  UNL1        0.2312
     45 O          61.7083   81.9200   14.6116 O.2     1  UNL1       -0.2748
     46 H          65.1042   82.6999   14.7059 H       1  UNL1        0.1494
     47 C          63.5798   81.1352   12.9893 C.3     1  UNL1        0.1880
     48 C          63.8272   81.8374   11.6870 C.3     1  UNL1        0.4063
     49 F          64.0747   82.5395   10.3848 F       1  UNL1       -0.1695
     50 F          62.6159   81.1756   11.1001 F       1  UNL1       -0.1695
     51 F          65.0386   82.4992   12.2740 F       1  UNL1       -0.1695
@<TRIPOS>BOND
     1    18    19    1
     2    19    20   ar
     3    20    21   ar
     4    21    22    1
     5    21    23   ar
     6    23    17    1
     7    17    16    1
     8    16    15    1
     9    15    14    1
    10    14     8    1
    11     8     9   ar
    12     9    10   ar
    13    10    11   ar
    14     1    11    1
    15     1     2    1
    16     2     3    1
    17     3     4    1
    18     4     5    1
    19     5     6    1
    20     6    27    1
    21    27    28    2
    22    27    29   am
    23    29    33    1
    24    33    34    1
    25    34    35   ar
    26    35    36   ar
    27    36    41    1
    28    41    42    1
    29    42    43    1
    30    43    44   am
    31    44    45    2
    32    44    47    1
    33    47    48    1
    34    48    49    1
    35    48    50    1
    36    48    51    1
    37    36    37   ar
    38    37    38   ar
    39    38    39   ar
    40    39    40    1
    41    29    30    1
    42    30    31    1
    43    31    32    1
    44    11    12   ar
    45    12    13   ar
    46    23    24   ar
    47    24    25    1
    48    24    26   ar
    49    26    19   ar
    50    13     8   ar
    51     6     1    1
    52    39    34   ar
    53    32    30    1
    54     4     7    1
    55    43    46    1
