@<TRIPOS>MOLECULE
*****
 31 34 0 0 0
SMALL
GASTEIGER

@<TRIPOS>ATOM
      1 C          63.8715   90.6356   12.5226 C.ar    1  UNL1        0.1311
      2 C          63.8812   89.3203   13.2436 C.ar    1  UNL1        0.0339
      3 C          63.1330   88.1496   12.6783 C.ar    1  UNL1        0.0027
      4 C          62.3750   88.2941   11.3920 C.ar    1  UNL1        0.0283
      5 C          62.3653   89.6094   10.6710 C.ar    1  UNL1        0.2196
      6 F          61.6073   89.7540    9.3847 F       1  UNL1       -0.1835
      7 N          63.1135   90.7801   11.2363 N.ar    1  UNL1       -0.2035
      8 N          64.6197   91.8063   13.0878 N.pl3   1  UNL1       -0.3144
      9 H          64.1504   92.4669   13.6469 H       1  UNL1        0.1485
     10 C          66.0829   91.9706   12.8012 C.3     1  UNL1        0.1170
     11 C          67.4310   94.6411    9.4396 C.ar    1  UNL1        0.2533
     12 N          66.5944   95.2001   10.5521 N.ar    1  UNL1       -0.2085
     13 C          66.1450   94.3099   11.6726 C.ar    1  UNL1        0.0995
     14 C          66.5323   92.8607   11.6806 C.ar    1  UNL1        0.0190
     15 C          67.3689   92.3018   10.5682 C.ar    1  UNL1        0.0334
     16 C          67.8183   93.1920    9.4477 C.ar    1  UNL1        0.1927
     17 F          68.6549   92.6331    8.3352 F       1  UNL1       -0.1993
     18 C          67.2085   96.8537    8.0961 C.3     1  UNL1        0.2543
     19 O          67.8804   95.5312    8.3190 O.3     1  UNL1       -0.4546
     20 C          61.6268   87.1233   10.8267 C.3     1  UNL1        0.0582
     21 C          62.3750   85.9112   10.3567 C.ar    1  UNL1        0.0044
     22 C          62.7818   85.6195    8.9427 C.ar    1  UNL1        0.0966
     23 N          63.5060   84.3060    8.9304 N.ar    1  UNL1       -0.2273
     24 C          63.5467   83.7858   10.3367 C.ar    1  UNL1        0.1403
     25 N          64.1299   82.5369   10.9284 N.ar    1  UNL1       -0.3367
     26 C          64.0141   82.2802   12.4017 C.ar    1  UNL1        0.0850
     27 C          63.3151   83.2723   13.2833 C.ar    1  UNL1        0.0747
     28 CL         63.1994   83.0155   14.7566 Cl      1  UNL1       -0.0807
     29 C          62.7319   84.5211   12.6915 C.ar    1  UNL1        0.0156
     30 C          62.8477   84.7779   11.2183 C.ar    1  UNL1        0.0327
     31 H          64.5887   81.8858   10.3498 H       1  UNL1        0.1674
@<TRIPOS>BOND
     1    18    19    1
     2    19    11    1
     3    11    12   ar
     4    12    13   ar
     5    13    14   ar
     6    14    10    1
     7    10     8    1
     8     8     1    1
     9     1     2   ar
    10     2     3   ar
    11     3     4   ar
    12     4    20    1
    13    20    21    1
    14    21    22   ar
    15    22    23   ar
    16    23    24   ar
    17    24    25   ar
    18    25    26   ar
    19    26    27   ar
    20    27    28    1
    21    27    29   ar
    22    29    30   ar
    23     4     5   ar
    24     5     6    1
    25     5     7   ar
    26    14    15   ar
    27    15    16   ar
    28    16    17    1
    29    16    11   ar
    30     7     1   ar
    31    30    21   ar
    32    30    24    1
    33     8     9    1
    34    25    31    1
@<TRIPOS>MOLECULE
*****
 31 34 0 0 0
SMALL
GASTEIGER

@<TRIPOS>ATOM
      1 C          63.4598   83.8470   13.1421 C.ar    1  UNL1        0.1311
      2 C          62.4025   84.8774   12.8763 C.ar    1  UNL1        0.0339
      3 C          62.1087   85.3044   11.4687 C.ar    1  UNL1        0.0027
      4 C          62.8721   84.7012   10.3270 C.ar    1  UNL1        0.0283
      5 C          63.9294   83.6709   10.5929 C.ar    1  UNL1        0.2196
      6 F          64.6928   83.0677    9.4513 F       1  UNL1       -0.1835
      7 N          64.2232   83.2438   12.0005 N.ar    1  UNL1       -0.2035
      8 N          63.7537   83.4199   14.5497 N.pl3   1  UNL1       -0.3144
      9 H          63.4229   82.5536   14.8804 H       1  UNL1        0.1485
     10 C          64.5515   84.3126   15.4534 C.3     1  UNL1        0.1170
     11 C          63.3008   88.5918   16.0651 C.ar    1  UNL1        0.2533
     12 N          62.8197   87.5279   17.0066 N.ar    1  UNL1       -0.2085
     13 C          63.2366   86.1015   16.8027 C.ar    1  UNL1        0.0995
     14 C          64.1346   85.7390   15.6572 C.ar    1  UNL1        0.0190
     15 C          64.6157   86.8029   14.7156 C.ar    1  UNL1        0.0334
     16 C          64.1988   88.2293   14.9196 C.ar    1  UNL1        0.1927
     17 F          64.6799   89.2932   13.9780 F       1  UNL1       -0.1993
     18 C          63.9195   91.1023   16.3197 C.3     1  UNL1        0.2543
     19 O          62.8839   90.0182   16.2689 O.3     1  UNL1       -0.4546
     20 C          62.5783   85.1284    8.9194 C.3     1  UNL1        0.0582
     21 C          61.5259   86.1638    8.6541 C.ar    1  UNL1        0.0044
     22 C          60.3129   85.9867    7.7897 C.ar    1  UNL1        0.0966
     23 N          59.5391   87.2716    7.8079 N.ar    1  UNL1       -0.2273
     24 C          60.2739   88.2428    8.6836 C.ar    1  UNL1        0.1403
     25 N          59.9836   89.6621    9.0723 N.ar    1  UNL1       -0.3367
     26 C          60.9211   90.3968    9.9840 C.ar    1  UNL1        0.0850
     27 C          62.1491   89.7121   10.5070 C.ar    1  UNL1        0.0747
     28 CL         63.0866   90.4469   11.4187 Cl      1  UNL1       -0.0807
     29 C          62.4394   88.2928   10.1182 C.ar    1  UNL1        0.0156
     30 C          61.5019   87.5581    9.2065 C.ar    1  UNL1        0.0327
     31 H          59.1777   90.1115    8.7291 H       1  UNL1        0.1674
@<TRIPOS>BOND
     1    18    19    1
     2    19    11    1
     3    11    12   ar
     4    12    13   ar
     5    13    14   ar
     6    14    10    1
     7    10     8    1
     8     8     1    1
     9     1     2   ar
    10     2     3   ar
    11     3     4   ar
    12     4    20    1
    13    20    21    1
    14    21    22   ar
    15    22    23   ar
    16    23    24   ar
    17    24    25   ar
    18    25    26   ar
    19    26    27   ar
    20    27    28    1
    21    27    29   ar
    22    29    30   ar
    23     4     5   ar
    24     5     6    1
    25     5     7   ar
    26    14    15   ar
    27    15    16   ar
    28    16    17    1
    29    16    11   ar
    30     7     1   ar
    31    30    21   ar
    32    30    24    1
    33     8     9    1
    34    25    31    1
@<TRIPOS>MOLECULE
*****
 31 34 0 0 0
SMALL
GASTEIGER

@<TRIPOS>ATOM
      1 C          64.2586   85.2089   15.5999 C.ar    1  UNL1        0.1311
      2 C          64.7929   86.1336   14.5466 C.ar    1  UNL1        0.0339
      3 C          64.5144   87.6052   14.6293 C.ar    1  UNL1        0.0027
      4 C          63.7017   88.1520   15.7653 C.ar    1  UNL1        0.0283
      5 C          63.1674   87.2273   16.8186 C.ar    1  UNL1        0.2196
      6 F          62.3547   87.7742   17.9546 F       1  UNL1       -0.1835
      7 N          63.4459   85.7558   16.7359 N.ar    1  UNL1       -0.2035
      8 N          64.5371   83.7373   15.5173 N.pl3   1  UNL1       -0.3144
      9 H          65.2499   83.3395   16.0677 H       1  UNL1        0.1485
     10 C          63.7296   82.8716   14.5961 C.3     1  UNL1        0.1170
     11 C          63.4943   83.8580   10.2118 C.ar    1  UNL1        0.2533
     12 N          64.5706   82.9442   10.7183 N.ar    1  UNL1       -0.2085
     13 C          64.6490   82.6154   12.1797 C.ar    1  UNL1        0.0995
     14 C          63.6511   83.2004   13.1347 C.ar    1  UNL1        0.0190
     15 C          62.5747   84.1142   12.6282 C.ar    1  UNL1        0.0334
     16 C          62.4963   84.4430   11.1668 C.ar    1  UNL1        0.1927
     17 F          61.4200   85.3567   10.6603 F       1  UNL1       -0.1993
     18 C          63.0523   85.5746    8.3124 C.3     1  UNL1        0.2543
     19 O          63.4158   84.1868    8.7505 O.3     1  UNL1       -0.4546
     20 C          63.4232   89.6237   15.8479 C.3     1  UNL1        0.0582
     21 C          64.0976   90.5691   14.8985 C.ar    1  UNL1        0.0044
     22 C          65.1812   91.5458   15.2477 C.ar    1  UNL1        0.0966
     23 N          65.5600   92.2841   13.9981 N.ar    1  UNL1       -0.2273
     24 C          64.7106   91.7637   12.8767 C.ar    1  UNL1        0.1403
     25 N          64.6434   92.1181   11.4207 N.ar    1  UNL1       -0.3367
     26 C          63.6723   91.4126   10.5212 C.ar    1  UNL1        0.0850
     27 C          62.7684   90.3527   11.0777 C.ar    1  UNL1        0.0747
     28 CL         61.7973   89.6471   10.1781 Cl      1  UNL1       -0.0807
     29 C          62.8356   89.9983   12.5336 C.ar    1  UNL1        0.0156
     30 C          63.8067   90.7038   13.4331 C.ar    1  UNL1        0.0327
     31 H          65.2366   92.8138   11.0555 H       1  UNL1        0.1674
@<TRIPOS>BOND
     1    18    19    1
     2    19    11    1
     3    11    12   ar
     4    12    13   ar
     5    13    14   ar
     6    14    10    1
     7    10     8    1
     8     8     1    1
     9     1     2   ar
    10     2     3   ar
    11     3     4   ar
    12     4    20    1
    13    20    21    1
    14    21    22   ar
    15    22    23   ar
    16    23    24   ar
    17    24    25   ar
    18    25    26   ar
    19    26    27   ar
    20    27    28    1
    21    27    29   ar
    22    29    30   ar
    23     4     5   ar
    24     5     6    1
    25     5     7   ar
    26    14    15   ar
    27    15    16   ar
    28    16    17    1
    29    16    11   ar
    30     7     1   ar
    31    30    21   ar
    32    30    24    1
    33     8     9    1
    34    25    31    1
@<TRIPOS>MOLECULE
*****
 31 34 0 0 0
SMALL
GASTEIGER

@<TRIPOS>ATOM
      1 C          62.0540   89.7544   11.9566 C.ar    1  UNL1        0.1311
      2 C          62.6579   90.6022   10.8766 C.ar    1  UNL1        0.0339
      3 C          63.8779   91.4262   11.1642 C.ar    1  UNL1        0.0027
      4 C          64.4939   91.4024   12.5316 C.ar    1  UNL1        0.0283
      5 C          63.8899   90.5545   13.6116 C.ar    1  UNL1        0.2196
      6 F          64.5059   90.5306   14.9791 F       1  UNL1       -0.1835
      7 N          62.6699   89.7305   13.3240 N.ar    1  UNL1       -0.2035
      8 N          60.8340   88.9303   11.6691 N.pl3   1  UNL1       -0.3144
      9 H          60.4551   88.3511   12.3691 H       1  UNL1        0.1485
     10 C          60.1913   88.9889   10.3150 C.3     1  UNL1        0.1170
     11 C          60.7178   85.5799    7.4251 C.ar    1  UNL1        0.2533
     12 N          59.4262   86.3420    7.4587 N.ar    1  UNL1       -0.2085
     13 C          59.2508   87.4783    8.4220 C.ar    1  UNL1        0.0995
     14 C          60.3669   87.8525    9.3517 C.ar    1  UNL1        0.0190
     15 C          61.6584   87.0905    9.3181 C.ar    1  UNL1        0.0334
     16 C          61.8339   85.9541    8.3548 C.ar    1  UNL1        0.1927
     17 F          63.1254   85.1921    8.3212 F       1  UNL1       -0.1993
     18 C          62.1002   84.3939    5.5725 C.3     1  UNL1        0.2543
     19 O          60.8934   84.4436    6.4619 O.3     1  UNL1       -0.4546
     20 C          65.7139   92.2264   12.8192 C.3     1  UNL1        0.0582
     21 C          66.6827   92.5415   11.7182 C.ar    1  UNL1        0.0044
     22 C          67.9344   91.7785   11.4000 C.ar    1  UNL1        0.0966
     23 N          68.5951   92.4404   10.2273 N.ar    1  UNL1       -0.2273
     24 C          67.7518   93.6124    9.8206 C.ar    1  UNL1        0.1403
     25 N          67.9075   94.6307    8.7304 N.ar    1  UNL1       -0.3367
     26 C          66.8813   95.7115    8.5616 C.ar    1  UNL1        0.0850
     27 C          65.6993   95.7740    9.4830 C.ar    1  UNL1        0.0747
     28 CL         64.6730   96.8549    9.3141 Cl      1  UNL1       -0.0807
     29 C          65.5436   94.7557   10.5733 C.ar    1  UNL1        0.0156
     30 C          66.5699   93.6749   10.7421 C.ar    1  UNL1        0.0327
     31 H          68.6833   94.5897    8.1256 H       1  UNL1        0.1674
@<TRIPOS>BOND
     1    18    19    1
     2    19    11    1
     3    11    12   ar
     4    12    13   ar
     5    13    14   ar
     6    14    10    1
     7    10     8    1
     8     8     1    1
     9     1     2   ar
    10     2     3   ar
    11     3     4   ar
    12     4    20    1
    13    20    21    1
    14    21    22   ar
    15    22    23   ar
    16    23    24   ar
    17    24    25   ar
    18    25    26   ar
    19    26    27   ar
    20    27    28    1
    21    27    29   ar
    22    29    30   ar
    23     4     5   ar
    24     5     6    1
    25     5     7   ar
    26    14    15   ar
    27    15    16   ar
    28    16    17    1
    29    16    11   ar
    30     7     1   ar
    31    30    21   ar
    32    30    24    1
    33     8     9    1
    34    25    31    1
@<TRIPOS>MOLECULE
*****
 31 34 0 0 0
SMALL
GASTEIGER

@<TRIPOS>ATOM
      1 C          64.1560   85.4659   15.5860 C.ar    1  UNL1        0.1311
      2 C          64.5867   86.3369   14.4433 C.ar    1  UNL1        0.0339
      3 C          64.3737   87.8202   14.5093 C.ar    1  UNL1        0.0027
      4 C          63.7301   88.4325   15.7180 C.ar    1  UNL1        0.0283
      5 C          63.2995   87.5614   16.8607 C.ar    1  UNL1        0.2196
      6 F          62.6559   88.1737   18.0694 F       1  UNL1       -0.1835
      7 N          63.5125   86.0781   16.7947 N.ar    1  UNL1       -0.2035
      8 N          64.3690   83.9825   15.5201 N.pl3   1  UNL1       -0.3144
      9 H          65.2597   83.6046   15.7019 H       1  UNL1        0.1485
     10 C          63.2250   83.0750   15.1771 C.3     1  UNL1        0.1170
     11 C          63.0947   81.0350   11.1683 C.ar    1  UNL1        0.2533
     12 N          62.6134   80.3143   12.3926 N.ar    1  UNL1       -0.2085
     13 C          62.6568   80.9943   13.7288 C.ar    1  UNL1        0.0995
     14 C          63.1816   82.3951   13.8408 C.ar    1  UNL1        0.0190
     15 C          63.6629   83.1158   12.6166 C.ar    1  UNL1        0.0334
     16 C          63.6194   82.4358   11.2803 C.ar    1  UNL1        0.1927
     17 F          64.1007   83.1565   10.0560 F       1  UNL1       -0.1993
     18 C          62.7645   78.8852    9.7473 C.3     1  UNL1        0.2543
     19 O          63.0513   80.3551    9.8320 O.3     1  UNL1       -0.4546
     20 C          63.5171   89.9159   15.7840 C.3     1  UNL1        0.0582
     21 C          64.2474   90.8213   14.8369 C.ar    1  UNL1        0.0044
     22 C          65.3763   91.7430   15.1921 C.ar    1  UNL1        0.0966
     23 N          65.8036   92.4552   13.9431 N.ar    1  UNL1       -0.2273
     24 C          64.9388   91.9737   12.8159 C.ar    1  UNL1        0.1403
     25 N          64.9029   92.3244   11.3580 N.ar    1  UNL1       -0.3367
     26 C          63.9053   91.6652   10.4524 C.ar    1  UNL1        0.0850
     27 C          62.9435   90.6554   11.0049 C.ar    1  UNL1        0.0747
     28 CL         61.9458   89.9961   10.0992 Cl      1  UNL1       -0.0807
     29 C          62.9794   90.3047   12.4628 C.ar    1  UNL1        0.0156
     30 C          63.9771   90.9639   13.3684 C.ar    1  UNL1        0.0327
     31 H          65.5342   92.9872   10.9954 H       1  UNL1        0.1674
@<TRIPOS>BOND
     1    18    19    1
     2    19    11    1
     3    11    12   ar
     4    12    13   ar
     5    13    14   ar
     6    14    10    1
     7    10     8    1
     8     8     1    1
     9     1     2   ar
    10     2     3   ar
    11     3     4   ar
    12     4    20    1
    13    20    21    1
    14    21    22   ar
    15    22    23   ar
    16    23    24   ar
    17    24    25   ar
    18    25    26   ar
    19    26    27   ar
    20    27    28    1
    21    27    29   ar
    22    29    30   ar
    23     4     5   ar
    24     5     6    1
    25     5     7   ar
    26    14    15   ar
    27    15    16   ar
    28    16    17    1
    29    16    11   ar
    30     7     1   ar
    31    30    21   ar
    32    30    24    1
    33     8     9    1
    34    25    31    1
@<TRIPOS>MOLECULE
*****
 31 34 0 0 0
SMALL
GASTEIGER

@<TRIPOS>ATOM
      1 C          62.2919   89.8113   10.6857 C.ar    1  UNL1        0.1311
      2 C          62.8509   88.8559   11.6981 C.ar    1  UNL1        0.0339
      3 C          62.6455   87.3797   11.5295 C.ar    1  UNL1        0.0027
      4 C          61.8811   86.8587   10.3487 C.ar    1  UNL1        0.0283
      5 C          61.3220   87.8141    9.3364 C.ar    1  UNL1        0.2196
      6 F          60.5576   87.2931    8.1556 F       1  UNL1       -0.1835
      7 N          61.5274   89.2903    9.5049 N.ar    1  UNL1       -0.2035
      8 N          62.4972   91.2875   10.8542 N.pl3   1  UNL1       -0.3144
      9 H          61.7864   91.8413   11.2508 H       1  UNL1        0.1485
     10 C          63.7856   91.9202   10.4184 C.3     1  UNL1        0.1170
     11 C          67.1420   92.4520   13.3683 C.ar    1  UNL1        0.2533
     12 N          67.3021   92.9306   11.9557 N.ar    1  UNL1       -0.2085
     13 C          66.1833   92.7533   10.9724 C.ar    1  UNL1        0.0995
     14 C          64.9044   92.0974   11.4017 C.ar    1  UNL1        0.0190
     15 C          64.7443   91.6188   12.8143 C.ar    1  UNL1        0.0334
     16 C          65.8631   91.7961   13.7975 C.ar    1  UNL1        0.1927
     17 F          65.7030   91.3175   15.2101 F       1  UNL1       -0.1993
     18 C          68.0818   93.5313   15.5366 C.3     1  UNL1        0.2543
     19 O          68.2607   92.6292   14.3516 O.3     1  UNL1       -0.4546
     20 C          61.6757   85.3824   10.1803 C.3     1  UNL1        0.0582
     21 C          62.7519   84.4233   10.5948 C.ar    1  UNL1        0.0044
     22 C          63.6985   83.7094    9.6760 C.ar    1  UNL1        0.0966
     23 N          64.6021   82.8546   10.5144 N.ar    1  UNL1       -0.2273
     24 C          64.2140   83.0403   11.9513 C.ar    1  UNL1        0.1403
     25 N          64.7541   82.4517   13.2209 N.ar    1  UNL1       -0.3367
     26 C          64.1507   82.8327   14.5403 C.ar    1  UNL1        0.0850
     27 C          63.0072   83.8022   14.5900 C.ar    1  UNL1        0.0747
     28 CL         62.4037   84.1832   15.9094 Cl      1  UNL1       -0.0807
     29 C          62.4671   84.3907   13.3204 C.ar    1  UNL1        0.0156
     30 C          63.0705   84.0097   12.0011 C.ar    1  UNL1        0.0327
     31 H          65.5046   81.8154   13.1883 H       1  UNL1        0.1674
@<TRIPOS>BOND
     1    18    19    1
     2    19    11    1
     3    11    12   ar
     4    12    13   ar
     5    13    14   ar
     6    14    10    1
     7    10     8    1
     8     8     1    1
     9     1     2   ar
    10     2     3   ar
    11     3     4   ar
    12     4    20    1
    13    20    21    1
    14    21    22   ar
    15    22    23   ar
    16    23    24   ar
    17    24    25   ar
    18    25    26   ar
    19    26    27   ar
    20    27    28    1
    21    27    29   ar
    22    29    30   ar
    23     4     5   ar
    24     5     6    1
    25     5     7   ar
    26    14    15   ar
    27    15    16   ar
    28    16    17    1
    29    16    11   ar
    30     7     1   ar
    31    30    21   ar
    32    30    24    1
    33     8     9    1
    34    25    31    1
@<TRIPOS>MOLECULE
*****
 31 34 0 0 0
SMALL
GASTEIGER

@<TRIPOS>ATOM
      1 C          60.8254   87.2426    9.4149 C.ar    1  UNL1        0.1311
      2 C          60.9950   86.6376   10.7769 C.ar    1  UNL1        0.0339
      3 C          61.9216   85.4741   10.9706 C.ar    1  UNL1        0.0027
      4 C          62.6786   84.9156    9.8022 C.ar    1  UNL1        0.0283
      5 C          62.5090   85.5207    8.4402 C.ar    1  UNL1        0.2196
      6 F          63.2661   84.9622    7.2719 F       1  UNL1       -0.1835
      7 N          61.5824   86.6842    8.2466 N.ar    1  UNL1       -0.2035
      8 N          59.8987   88.4062    9.2212 N.pl3   1  UNL1       -0.3144
      9 H          58.9562   88.2505    8.9831 H       1  UNL1        0.1485
     10 C          60.4081   89.8069    9.3901 C.3     1  UNL1        0.1170
     11 C          63.4414   90.7281   12.5839 C.ar    1  UNL1        0.2533
     12 N          62.1611   90.0340   12.9433 N.ar    1  UNL1       -0.2085
     13 C          61.1500   89.7270   11.8787 C.ar    1  UNL1        0.0995
     14 C          61.4192   90.1140   10.4547 C.ar    1  UNL1        0.0190
     15 C          62.6995   90.8081   10.0953 C.ar    1  UNL1        0.0334
     16 C          63.7105   91.1151   11.1599 C.ar    1  UNL1        0.1927
     17 F          64.9908   91.8092   10.8005 F       1  UNL1       -0.1993
     18 C          64.1229   90.7855   15.0903 C.3     1  UNL1        0.2543
     19 O          64.4525   91.0352   13.6484 O.3     1  UNL1       -0.4546
     20 C          63.6053   83.7520    9.9960 C.3     1  UNL1        0.0582
     21 C          63.4638   82.8735   11.2035 C.ar    1  UNL1        0.0044
     22 C          63.1213   81.4132   11.1962 C.ar    1  UNL1        0.0966
     23 N          63.0858   80.9383   12.6186 N.ar    1  UNL1       -0.2273
     24 C          63.4064   82.1051   13.5050 C.ar    1  UNL1        0.1403
     25 N          63.5158   82.2330   14.9955 N.ar    1  UNL1       -0.3367
     26 C          63.8588   83.5570   15.6114 C.ar    1  UNL1        0.0850
     27 C          64.0925   84.7530   14.7369 C.ar    1  UNL1        0.0747
     28 CL         64.4355   86.0770   15.3529 Cl      1  UNL1       -0.0807
     29 C          63.9831   84.6251   13.2464 C.ar    1  UNL1        0.0156
     30 C          63.6401   83.3012   12.6304 C.ar    1  UNL1        0.0327
     31 H          63.3625   81.4480   15.5695 H       1  UNL1        0.1674
@<TRIPOS>BOND
     1    18    19    1
     2    19    11    1
     3    11    12   ar
     4    12    13   ar
     5    13    14   ar
     6    14    10    1
     7    10     8    1
     8     8     1    1
     9     1     2   ar
    10     2     3   ar
    11     3     4   ar
    12     4    20    1
    13    20    21    1
    14    21    22   ar
    15    22    23   ar
    16    23    24   ar
    17    24    25   ar
    18    25    26   ar
    19    26    27   ar
    20    27    28    1
    21    27    29   ar
    22    29    30   ar
    23     4     5   ar
    24     5     6    1
    25     5     7   ar
    26    14    15   ar
    27    15    16   ar
    28    16    17    1
    29    16    11   ar
    30     7     1   ar
    31    30    21   ar
    32    30    24    1
    33     8     9    1
    34    25    31    1
@<TRIPOS>MOLECULE
*****
 31 34 0 0 0
SMALL
GASTEIGER

@<TRIPOS>ATOM
      1 C          61.9629   88.9965   11.2469 C.ar    1  UNL1        0.1311
      2 C          62.2106   89.8157   10.0150 C.ar    1  UNL1        0.0339
      3 C          63.1179   91.0086   10.0776 C.ar    1  UNL1        0.0027
      4 C          63.7774   91.3822   11.3720 C.ar    1  UNL1        0.0283
      5 C          63.5297   90.5630   12.6039 C.ar    1  UNL1        0.2196
      6 F          64.1892   90.9367   13.8982 F       1  UNL1       -0.1835
      7 N          62.6224   89.3702   12.5413 N.ar    1  UNL1       -0.2035
      8 N          61.0557   87.8037   11.1844 N.pl3   1  UNL1       -0.3144
      9 H          60.2187   87.7941   11.7027 H       1  UNL1        0.1485
     10 C          61.4235   86.6253   10.3322 C.3     1  UNL1        0.1170
     11 C          63.7198   83.1898   12.1137 C.ar    1  UNL1        0.2533
     12 N          62.9224   84.0992   13.0008 N.ar    1  UNL1       -0.2085
     13 C          62.1569   85.2444   12.4070 C.ar    1  UNL1        0.0995
     14 C          62.1889   85.4801   10.9260 C.ar    1  UNL1        0.0190
     15 C          62.9864   84.5707   10.0388 C.ar    1  UNL1        0.0334
     16 C          63.7518   83.4255   10.6327 C.ar    1  UNL1        0.1927
     17 F          64.5492   82.5161    9.7455 F       1  UNL1       -0.1993
     18 C          63.7869   81.0534   13.5907 C.3     1  UNL1        0.2543
     19 O          64.4852   82.0446   12.7074 O.3     1  UNL1       -0.4546
     20 C          64.6847   92.5752   11.4345 C.3     1  UNL1        0.0582
     21 C          66.1721   92.3849   11.4756 C.ar    1  UNL1        0.0044
     22 C          67.0737   92.2254   10.2875 C.ar    1  UNL1        0.0966
     23 N          68.4777   92.0626   10.7898 N.ar    1  UNL1       -0.2273
     24 C          68.4438   92.1216   12.2882 C.ar    1  UNL1        0.1403
     25 N          69.5264   92.0196   13.3214 N.ar    1  UNL1       -0.3367
     26 C          69.1839   92.1169   14.7786 C.ar    1  UNL1        0.0850
     27 C          67.7589   92.3160   15.2025 C.ar    1  UNL1        0.0747
     28 CL         67.4165   92.4133   16.6597 Cl      1  UNL1       -0.0807
     29 C          66.6764   92.4180   14.1692 C.ar    1  UNL1        0.0156
     30 C          67.0188   92.3208   12.7121 C.ar    1  UNL1        0.0327
     31 H          70.4617   91.8889   13.0432 H       1  UNL1        0.1674
@<TRIPOS>BOND
     1    18    19    1
     2    19    11    1
     3    11    12   ar
     4    12    13   ar
     5    13    14   ar
     6    14    10    1
     7    10     8    1
     8     8     1    1
     9     1     2   ar
    10     2     3   ar
    11     3     4   ar
    12     4    20    1
    13    20    21    1
    14    21    22   ar
    15    22    23   ar
    16    23    24   ar
    17    24    25   ar
    18    25    26   ar
    19    26    27   ar
    20    27    28    1
    21    27    29   ar
    22    29    30   ar
    23     4     5   ar
    24     5     6    1
    25     5     7   ar
    26    14    15   ar
    27    15    16   ar
    28    16    17    1
    29    16    11   ar
    30     7     1   ar
    31    30    21   ar
    32    30    24    1
    33     8     9    1
    34    25    31    1
@<TRIPOS>MOLECULE
*****
 31 34 0 0 0
SMALL
GASTEIGER

@<TRIPOS>ATOM
      1 C          62.3967   89.1350   11.3997 C.ar    1  UNL1        0.1311
      2 C          62.7237   90.2612   10.4644 C.ar    1  UNL1        0.0339
      3 C          63.7480   91.2856   10.8534 C.ar    1  UNL1        0.0027
      4 C          64.4453   91.1838   12.1775 C.ar    1  UNL1        0.0283
      5 C          64.1183   90.0576   13.1128 C.ar    1  UNL1        0.2196
      6 F          64.8155   89.9559   14.4370 F       1  UNL1       -0.1835
      7 N          63.0940   89.0332   12.7238 N.ar    1  UNL1       -0.2035
      8 N          61.3724   88.1105   11.0108 N.pl3   1  UNL1       -0.3144
      9 H          60.4475   88.1902   11.3385 H       1  UNL1        0.1485
     10 C          61.7572   86.9646   10.1225 C.3     1  UNL1        0.1170
     11 C          63.5121   83.2252   11.9075 C.ar    1  UNL1        0.2533
     12 N          62.7420   84.1789   12.7719 N.ar    1  UNL1       -0.2085
     13 C          62.1571   85.4254   12.1769 C.ar    1  UNL1        0.0995
     14 C          62.3422   85.7181   10.7174 C.ar    1  UNL1        0.0190
     15 C          63.1123   84.7644    9.8530 C.ar    1  UNL1        0.0334
     16 C          63.6973   83.5179   10.4480 C.ar    1  UNL1        0.1927
     17 F          64.4674   82.5642    9.5835 F       1  UNL1       -0.1993
     18 C          63.4730   81.3645   13.7203 C.3     1  UNL1        0.2543
     19 O          64.0971   81.9787   12.5024 O.3     1  UNL1       -0.4546
     20 C          65.4697   92.2083   12.5665 C.3     1  UNL1        0.0582
     21 C          66.5545   92.5877   11.6025 C.ar    1  UNL1        0.0044
     22 C          67.8703   91.8872   11.4356 C.ar    1  UNL1        0.0966
     23 N          68.6429   92.6008   10.3661 N.ar    1  UNL1       -0.2273
     24 C          67.8047   93.7425    9.8722 C.ar    1  UNL1        0.1403
     25 N          68.0500   94.7883    8.8253 N.ar    1  UNL1       -0.3367
     26 C          67.0045   95.8261    8.5425 C.ar    1  UNL1        0.0850
     27 C          65.7137   95.8180    9.3067 C.ar    1  UNL1        0.0747
     28 CL         64.6683   96.8558    9.0239 Cl      1  UNL1       -0.0807
     29 C          65.4685   94.7722   10.3536 C.ar    1  UNL1        0.0156
     30 C          66.5139   93.7344   10.6363 C.ar    1  UNL1        0.0327
     31 H          68.8971   94.7936    8.3237 H       1  UNL1        0.1674
@<TRIPOS>BOND
     1    18    19    1
     2    19    11    1
     3    11    12   ar
     4    12    13   ar
     5    13    14   ar
     6    14    10    1
     7    10     8    1
     8     8     1    1
     9     1     2   ar
    10     2     3   ar
    11     3     4   ar
    12     4    20    1
    13    20    21    1
    14    21    22   ar
    15    22    23   ar
    16    23    24   ar
    17    24    25   ar
    18    25    26   ar
    19    26    27   ar
    20    27    28    1
    21    27    29   ar
    22    29    30   ar
    23     4     5   ar
    24     5     6    1
    25     5     7   ar
    26    14    15   ar
    27    15    16   ar
    28    16    17    1
    29    16    11   ar
    30     7     1   ar
    31    30    21   ar
    32    30    24    1
    33     8     9    1
    34    25    31    1
