@<TRIPOS>MOLECULE
*****
 37 41 0 0 0
SMALL
GASTEIGER

@<TRIPOS>ATOM
      1 C          61.9547   88.6015   10.9659 C.3     1  UNL1        0.0933
      2 C          61.9971   89.7440    9.9947 C.3     1  UNL1        0.0442
      3 C          61.1087   89.7344    8.7862 C.3     1  UNL1        0.0953
      4 N          60.1779   88.5823    8.5487 N.am    1  UNL1       -0.2794
      5 C          59.2895   88.5727    7.3401 C.2     1  UNL1        0.2252
      6 O          58.3588   87.4206    7.1026 O.2     1  UNL1       -0.2749
      7 C          60.1356   87.4399    9.5198 C.3     1  UNL1        0.0953
      8 C          61.0240   87.4495   10.7283 C.3     1  UNL1        0.0442
      9 N          64.2275   89.3755   14.0155 N.ar    1  UNL1       -0.2799
     10 C          63.3933   89.8297   12.8546 C.ar    1  UNL1        0.3315
     11 O          63.1517   91.2524   12.4456 O.2     1  UNL1       -0.2463
     12 N          62.8432   88.6112   12.1745 N.ar    1  UNL1       -0.2817
     13 C          63.3373   87.4040   12.9151 C.ar    1  UNL1        0.0796
     14 C          63.1188   85.9356   12.7003 C.ar    1  UNL1        0.0188
     15 C          63.7558   84.9397   13.6235 C.ar    1  UNL1        0.0016
     16 C          64.6114   85.4121   14.7614 C.ar    1  UNL1        0.0016
     17 C          64.8300   86.8804   14.9761 C.ar    1  UNL1        0.0188
     18 C          64.1930   87.8764   14.0529 C.ar    1  UNL1        0.0797
     19 C          64.9666   90.2645   14.9713 C.3     1  UNL1        0.1132
     20 C          66.0381   91.1838   14.4648 C.3     1  UNL1        0.0567
     21 C          66.1372   92.5838   14.9944 C.3     1  UNL1        0.1442
     22 O          66.0881   93.7481   14.0499 O.3     1  UNL1       -0.3537
     23 C          66.2412   94.6626   11.6230 C.3     1  UNL1        0.0346
     24 C          66.0645   93.5119   12.5688 C.3     1  UNL1        0.1422
     25 C          59.3319   89.7151    6.3691 C.3     1  UNL1        0.0795
     26 C          58.0718   90.4501    6.0202 C.3     1  UNL1        0.0264
     27 C          58.1142   91.5926    5.0491 C.3     1  UNL1        0.0729
     28 N          59.4169   92.0001    4.4269 N.3     1  UNL1       -0.2689
     29 C          60.6771   91.2651    4.7758 C.3     1  UNL1        0.0729
     30 C          60.6346   90.1227    5.7469 C.3     1  UNL1        0.0264
     31 C          59.4593   93.1426    3.4559 C.3     1  UNL1        0.0992
     32 C          60.1682   92.9854    2.1433 C.ar    1  UNL1       -0.0031
     33 C          59.3836   92.7040    0.8962 C.ar    1  UNL1        0.0178
     34 C          60.0924   92.5468   -0.4163 C.ar    1  UNL1        0.0986
     35 N          61.5858   92.6712   -0.4818 N.ar    1  UNL1       -0.2423
     36 C          62.3704   92.9527    0.7653 C.ar    1  UNL1        0.0986
     37 C          61.6615   93.1098    2.0779 C.ar    1  UNL1        0.0178
@<TRIPOS>BOND
     1    23    24    1
     2    24    22    1
     3    22    21    1
     4    21    20    1
     5    20    19    1
     6    19     9    1
     7     9    10   ar
     8    10    11    2
     9    10    12   ar
    10    12     1    1
    11     1     2    1
    12     2     3    1
    13     3     4    1
    14     4     5   am
    15     5     6    2
    16     5    25    1
    17    25    26    1
    18    26    27    1
    19    27    28    1
    20    28    31    1
    21    31    32    1
    22    32    33   ar
    23    33    34   ar
    24    34    35   ar
    25    35    36   ar
    26    36    37   ar
    27    28    29    1
    28    29    30    1
    29     4     7    1
    30     7     8    1
    31    12    13   ar
    32    13    14   ar
    33    14    15   ar
    34    15    16   ar
    35    16    17   ar
    36    17    18   ar
    37    18     9   ar
    38     8     1    1
    39    18    13   ar
    40    30    25    1
    41    37    32   ar
@<TRIPOS>MOLECULE
*****
 37 41 0 0 0
SMALL
GASTEIGER

@<TRIPOS>ATOM
      1 C          64.4280   89.9060   14.7362 C.3     1  UNL1        0.0933
      2 C          64.5633   88.5665   14.0747 C.3     1  UNL1        0.0442
      3 C          63.9953   87.3442   14.7329 C.3     1  UNL1        0.0953
      4 N          63.2920   87.4613   16.0526 N.am    1  UNL1       -0.2794
      5 C          62.7240   86.2390   16.7109 C.2     1  UNL1        0.2252
      6 O          62.0206   86.3561   18.0306 O.2     1  UNL1       -0.2749
      7 C          63.1566   88.8008   16.7141 C.3     1  UNL1        0.0953
      8 C          63.7247   90.0231   16.0558 C.3     1  UNL1        0.0442
      9 N          65.4344   92.8894   12.4664 N.ar    1  UNL1       -0.2799
     10 C          64.6250   91.6528   12.7224 C.ar    1  UNL1        0.3315
     11 O          63.6208   91.0469   11.7872 O.2     1  UNL1       -0.2463
     12 N          64.9960   91.1284   14.0779 N.ar    1  UNL1       -0.2817
     13 C          66.0347   92.0409   14.6597 C.ar    1  UNL1        0.0796
     14 C          66.7688   92.0213   15.9676 C.ar    1  UNL1        0.0188
     15 C          67.7739   93.0902   16.2795 C.ar    1  UNL1        0.0016
     16 C          68.0448   94.1786   15.2835 C.ar    1  UNL1        0.0016
     17 C          67.3108   94.1981   13.9756 C.ar    1  UNL1        0.0188
     18 C          66.3057   93.1293   13.6637 C.ar    1  UNL1        0.0797
     19 C          65.3819   93.7373   11.2302 C.3     1  UNL1        0.1132
     20 C          66.1635   95.0157   11.1638 C.3     1  UNL1        0.0567
     21 C          66.9647   95.3423    9.9384 C.3     1  UNL1        0.1442
     22 O          68.2433   94.6087    9.6608 O.3     1  UNL1       -0.3537
     23 C          68.3015   92.0113    9.6771 C.3     1  UNL1        0.0346
     24 C          68.2140   93.3040    8.9212 C.3     1  UNL1        0.1422
     25 C          62.8594   84.8996   16.0494 C.3     1  UNL1        0.0795
     26 C          61.6449   84.2021   15.5123 C.3     1  UNL1        0.0264
     27 C          61.7803   82.8626   14.8507 C.3     1  UNL1        0.0729
     28 N          63.1303   82.2207   14.7264 N.3     1  UNL1       -0.2689
     29 C          64.3448   82.9181   15.2635 C.3     1  UNL1        0.0729
     30 C          64.2093   84.2575   15.9250 C.3     1  UNL1        0.0264
     31 C          63.2657   80.8813   14.0649 C.3     1  UNL1        0.0992
     32 C          63.2235   80.7757   12.5692 C.ar    1  UNL1       -0.0031
     33 C          62.7643   79.5039   11.9197 C.ar    1  UNL1        0.0178
     34 C          62.7222   79.3984   10.4240 C.ar    1  UNL1        0.0986
     35 N          63.1392   80.5646    9.5778 N.ar    1  UNL1       -0.2423
     36 C          63.5984   81.8363   10.2273 C.ar    1  UNL1        0.0986
     37 C          63.6405   81.9419   11.7230 C.ar    1  UNL1        0.0178
@<TRIPOS>BOND
     1    23    24    1
     2    24    22    1
     3    22    21    1
     4    21    20    1
     5    20    19    1
     6    19     9    1
     7     9    10   ar
     8    10    11    2
     9    10    12   ar
    10    12     1    1
    11     1     2    1
    12     2     3    1
    13     3     4    1
    14     4     5   am
    15     5     6    2
    16     5    25    1
    17    25    26    1
    18    26    27    1
    19    27    28    1
    20    28    31    1
    21    31    32    1
    22    32    33   ar
    23    33    34   ar
    24    34    35   ar
    25    35    36   ar
    26    36    37   ar
    27    28    29    1
    28    29    30    1
    29     4     7    1
    30     7     8    1
    31    12    13   ar
    32    13    14   ar
    33    14    15   ar
    34    15    16   ar
    35    16    17   ar
    36    17    18   ar
    37    18     9   ar
    38     8     1    1
    39    18    13   ar
    40    30    25    1
    41    37    32   ar
@<TRIPOS>MOLECULE
*****
 37 41 0 0 0
SMALL
GASTEIGER

@<TRIPOS>ATOM
      1 C          61.8829   88.2630   10.8934 C.3     1  UNL1        0.0933
      2 C          61.9811   89.4329    9.9596 C.3     1  UNL1        0.0442
      3 C          61.0825   89.5135    8.7613 C.3     1  UNL1        0.0953
      4 N          60.0857   88.4243    8.4966 N.am    1  UNL1       -0.2794
      5 C          59.1871   88.5050    7.2983 C.2     1  UNL1        0.2252
      6 O          58.1903   87.4158    7.0337 O.2     1  UNL1       -0.2749
      7 C          59.9876   87.2545    9.4304 C.3     1  UNL1        0.0953
      8 C          60.8862   87.1739   10.6287 C.3     1  UNL1        0.0442
      9 N          64.0642   87.3155   13.9608 N.ar    1  UNL1       -0.2799
     10 C          63.1477   86.9330   12.8367 C.ar    1  UNL1        0.3315
     11 O          62.6794   85.5449   12.5143 O.2     1  UNL1       -0.2463
     12 N          62.7816   88.1824   12.0917 N.ar    1  UNL1       -0.2817
     13 C          63.4719   89.3370   12.7553 C.ar    1  UNL1        0.0796
     14 C          63.4810   90.8069   12.4569 C.ar    1  UNL1        0.0188
     15 C          64.2828   91.7411   13.3138 C.ar    1  UNL1        0.0016
     16 C          65.0756   91.2054   14.4690 C.ar    1  UNL1        0.0016
     17 C          65.0664   89.7354   14.7674 C.ar    1  UNL1        0.0188
     18 C          64.2646   88.8012   13.9105 C.ar    1  UNL1        0.0797
     19 C          64.6735   86.3770   14.9599 C.3     1  UNL1        0.1132
     20 C          63.8193   85.3503   15.6424 C.3     1  UNL1        0.0567
     21 C          63.9535   83.9012   15.2789 C.3     1  UNL1        0.1442
     22 O          62.7441   83.0139   15.2744 O.3     1  UNL1       -0.3537
     23 C          61.3435   81.1411   14.1427 C.3     1  UNL1        0.0346
     24 C          62.4530   82.1488   14.0841 C.3     1  UNL1        0.1422
     25 C          59.2853   89.6748    6.3647 C.3     1  UNL1        0.0795
     26 C          58.0587   90.4686    6.0253 C.3     1  UNL1        0.0264
     27 C          58.1570   91.6386    5.0915 C.3     1  UNL1        0.0729
     28 N          59.4819   92.0146    4.4973 N.3     1  UNL1       -0.2689
     29 C          60.7086   91.2208    4.8367 C.3     1  UNL1        0.0729
     30 C          60.6102   90.0510    5.7704 C.3     1  UNL1        0.0264
     31 C          59.5802   93.1845    3.5637 C.3     1  UNL1        0.0992
     32 C          60.2012   93.0130    2.2091 C.ar    1  UNL1       -0.0031
     33 C          59.3341   92.7428    1.0153 C.ar    1  UNL1        0.0178
     34 C          59.9551   92.5713   -0.3393 C.ar    1  UNL1        0.0986
     35 N          61.4432   92.6700   -0.5001 N.ar    1  UNL1       -0.2423
     36 C          62.3103   92.9403    0.6937 C.ar    1  UNL1        0.0986
     37 C          61.6892   93.1117    2.0483 C.ar    1  UNL1        0.0178
@<TRIPOS>BOND
     1    23    24    1
     2    24    22    1
     3    22    21    1
     4    21    20    1
     5    20    19    1
     6    19     9    1
     7     9    10   ar
     8    10    11    2
     9    10    12   ar
    10    12     1    1
    11     1     2    1
    12     2     3    1
    13     3     4    1
    14     4     5   am
    15     5     6    2
    16     5    25    1
    17    25    26    1
    18    26    27    1
    19    27    28    1
    20    28    31    1
    21    31    32    1
    22    32    33   ar
    23    33    34   ar
    24    34    35   ar
    25    35    36   ar
    26    36    37   ar
    27    28    29    1
    28    29    30    1
    29     4     7    1
    30     7     8    1
    31    12    13   ar
    32    13    14   ar
    33    14    15   ar
    34    15    16   ar
    35    16    17   ar
    36    17    18   ar
    37    18     9   ar
    38     8     1    1
    39    18    13   ar
    40    30    25    1
    41    37    32   ar
@<TRIPOS>MOLECULE
*****
 37 41 0 0 0
SMALL
GASTEIGER

@<TRIPOS>ATOM
      1 C          63.7382   85.7312   14.3103 C.3     1  UNL1        0.0933
      2 C          64.3162   86.7903   13.4190 C.3     1  UNL1        0.0442
      3 C          64.3809   88.2132   13.8894 C.3     1  UNL1        0.0953
      4 N          63.8676   88.5770   15.2511 N.am    1  UNL1       -0.2794
      5 C          63.9323   89.9999   15.7215 C.2     1  UNL1        0.2252
      6 O          63.4190   90.3637   17.0832 O.2     1  UNL1       -0.2749
      7 C          63.2896   87.5180   16.1423 C.3     1  UNL1        0.0953
      8 C          63.2250   86.0951   15.6719 C.3     1  UNL1        0.0442
      9 N          63.5607   81.8840   13.8281 N.ar    1  UNL1       -0.2799
     10 C          63.6140   83.0920   14.7157 C.ar    1  UNL1        0.3315
     11 O          63.6088   83.0850   16.2156 O.2     1  UNL1       -0.2463
     12 N          63.6735   84.3084   13.8399 N.ar    1  UNL1       -0.2817
     13 C          63.6570   83.8521   12.4110 C.ar    1  UNL1        0.0796
     14 C          63.6964   84.6074   11.1157 C.ar    1  UNL1        0.0188
     15 C          63.6661   83.8643    9.8131 C.ar    1  UNL1        0.0016
     16 C          63.5964   82.3660    9.8058 C.ar    1  UNL1        0.0016
     17 C          63.5570   81.6107   11.1011 C.ar    1  UNL1        0.0188
     18 C          63.5873   82.3537   12.4038 C.ar    1  UNL1        0.0797
     19 C          63.4928   80.4568   14.2846 C.3     1  UNL1        0.1132
     20 C          62.3011   79.6144   13.9383 C.3     1  UNL1        0.0567
     21 C          61.0226   80.2668   13.5025 C.3     1  UNL1        0.1442
     22 O          59.9685   80.6023   14.5157 O.3     1  UNL1       -0.3537
     23 C          58.7030   78.3369   14.6440 C.3     1  UNL1        0.0346
     24 C          58.6809   79.8332   14.5412 C.3     1  UNL1        0.1422
     25 C          64.5102   91.0588   14.8302 C.3     1  UNL1        0.0795
     26 C          65.5925   91.9621   15.3429 C.3     1  UNL1        0.0264
     27 C          66.1705   93.0211   14.4515 C.3     1  UNL1        0.0729
     28 N          65.6662   93.1768   13.0474 N.3     1  UNL1       -0.2689
     29 C          64.5839   92.2736   12.5347 C.3     1  UNL1        0.0729
     30 C          64.0060   91.2146   13.4261 C.3     1  UNL1        0.0264
     31 C          66.2441   94.2358   12.1561 C.3     1  UNL1        0.0992
     32 C          66.9342   93.8490   10.8817 C.ar    1  UNL1       -0.0031
     33 C          66.9828   94.8122    9.7329 C.ar    1  UNL1        0.0178
     34 C          67.6729   94.4253    8.4585 C.ar    1  UNL1        0.0986
     35 N          68.3144   93.0753    8.3329 N.ar    1  UNL1       -0.2423
     36 C          68.2658   92.1121    9.4818 C.ar    1  UNL1        0.0986
     37 C          67.5757   92.4989   10.7562 C.ar    1  UNL1        0.0178
@<TRIPOS>BOND
     1    23    24    1
     2    24    22    1
     3    22    21    1
     4    21    20    1
     5    20    19    1
     6    19     9    1
     7     9    10   ar
     8    10    11    2
     9    10    12   ar
    10    12     1    1
    11     1     2    1
    12     2     3    1
    13     3     4    1
    14     4     5   am
    15     5     6    2
    16     5    25    1
    17    25    26    1
    18    26    27    1
    19    27    28    1
    20    28    31    1
    21    31    32    1
    22    32    33   ar
    23    33    34   ar
    24    34    35   ar
    25    35    36   ar
    26    36    37   ar
    27    28    29    1
    28    29    30    1
    29     4     7    1
    30     7     8    1
    31    12    13   ar
    32    13    14   ar
    33    14    15   ar
    34    15    16   ar
    35    16    17   ar
    36    17    18   ar
    37    18     9   ar
    38     8     1    1
    39    18    13   ar
    40    30    25    1
    41    37    32   ar
@<TRIPOS>MOLECULE
*****
 37 41 0 0 0
SMALL
GASTEIGER

@<TRIPOS>ATOM
      1 C          64.6037   90.2648   15.1185 C.3     1  UNL1        0.0933
      2 C          64.8597   88.9392   14.4647 C.3     1  UNL1        0.0442
      3 C          64.2094   87.6993   15.0031 C.3     1  UNL1        0.0953
      4 N          63.3031   87.7850   16.1953 N.am    1  UNL1       -0.2794
      5 C          62.6528   86.5451   16.7337 C.2     1  UNL1        0.2252
      6 O          61.7464   86.6308   17.9258 O.2     1  UNL1       -0.2749
      7 C          63.0470   89.1105   16.8490 C.3     1  UNL1        0.0953
      8 C          63.6974   90.3504   16.3106 C.3     1  UNL1        0.0442
      9 N          66.5473   93.5527   14.4277 N.ar    1  UNL1       -0.2799
     10 C          66.1097   92.4602   15.3577 C.ar    1  UNL1        0.3315
     11 O          66.4653   92.3437   16.8103 O.2     1  UNL1       -0.2463
     12 N          65.2540   91.5046   14.5801 N.ar    1  UNL1       -0.2817
     13 C          65.1627   92.0066   13.1695 C.ar    1  UNL1        0.0796
     14 C          64.4551   91.4746   11.9587 C.ar    1  UNL1        0.0188
     15 C          64.5468   92.2084   10.6537 C.ar    1  UNL1        0.0016
     16 C          65.3461   93.4742   10.5595 C.ar    1  UNL1        0.0016
     17 C          66.0537   94.0062   11.7703 C.ar    1  UNL1        0.0188
     18 C          65.9620   93.2724   13.0753 C.ar    1  UNL1        0.0797
     19 C          67.4174   94.7205   14.7870 C.3     1  UNL1        0.1132
     20 C          68.6235   94.5181   15.6553 C.3     1  UNL1        0.0567
     21 C          69.3991   93.2367   15.5749 C.3     1  UNL1        0.1442
     22 O          69.8319   92.7043   14.2410 O.3     1  UNL1       -0.3537
     23 C          68.8245   91.5257   12.1563 C.3     1  UNL1        0.0346
     24 C          69.1113   91.5400   13.6286 C.3     1  UNL1        0.1422
     25 C          62.9089   85.2197   16.0799 C.3     1  UNL1        0.0795
     26 C          64.3169   84.7544   15.8538 C.3     1  UNL1        0.0264
     27 C          64.5729   83.4288   15.1999 C.3     1  UNL1        0.0729
     28 N          63.4209   82.5686   14.7723 N.3     1  UNL1       -0.2689
     29 C          62.0130   83.0338   14.9984 C.3     1  UNL1        0.0729
     30 C          61.7569   84.3593   15.6522 C.3     1  UNL1        0.0264
     31 C          63.6770   81.2431   14.1185 C.3     1  UNL1        0.0992
     32 C          63.4884   81.0878   12.6385 C.ar    1  UNL1       -0.0031
     33 C          63.9769   82.1547   11.7041 C.ar    1  UNL1        0.0178
     34 C          63.7882   81.9994   10.2242 C.ar    1  UNL1        0.0986
     35 N          63.1110   80.7772    9.6786 N.ar    1  UNL1       -0.2423
     36 C          62.6225   79.7103   10.6130 C.ar    1  UNL1        0.0986
     37 C          62.8111   79.8656   12.0930 C.ar    1  UNL1        0.0178
@<TRIPOS>BOND
     1    23    24    1
     2    24    22    1
     3    22    21    1
     4    21    20    1
     5    20    19    1
     6    19     9    1
     7     9    10   ar
     8    10    11    2
     9    10    12   ar
    10    12     1    1
    11     1     2    1
    12     2     3    1
    13     3     4    1
    14     4     5   am
    15     5     6    2
    16     5    25    1
    17    25    26    1
    18    26    27    1
    19    27    28    1
    20    28    31    1
    21    31    32    1
    22    32    33   ar
    23    33    34   ar
    24    34    35   ar
    25    35    36   ar
    26    36    37   ar
    27    28    29    1
    28    29    30    1
    29     4     7    1
    30     7     8    1
    31    12    13   ar
    32    13    14   ar
    33    14    15   ar
    34    15    16   ar
    35    16    17   ar
    36    17    18   ar
    37    18     9   ar
    38     8     1    1
    39    18    13   ar
    40    30    25    1
    41    37    32   ar
@<TRIPOS>MOLECULE
*****
 37 41 0 0 0
SMALL
GASTEIGER

@<TRIPOS>ATOM
      1 C          60.7611   92.4281    3.1432 C.3     1  UNL1        0.0933
      2 C          61.4458   91.6554    4.2316 C.3     1  UNL1        0.0442
      3 C          60.6325   90.9018    5.2419 C.3     1  UNL1        0.0953
      4 N          59.1347   90.9208    5.1639 N.am    1  UNL1       -0.2794
      5 C          58.3214   90.1671    6.1741 C.2     1  UNL1        0.2252
      6 O          56.8236   90.1861    6.0961 O.2     1  UNL1       -0.2749
      7 C          58.4501   91.6934    4.0756 C.3     1  UNL1        0.0953
      8 C          59.2634   92.4470    3.0653 C.3     1  UNL1        0.0442
      9 N          63.4281   93.9320    0.7577 N.ar    1  UNL1       -0.2799
     10 C          63.0269   92.9622    1.8294 C.ar    1  UNL1        0.3315
     11 O          63.9211   91.9505    2.4827 O.2     1  UNL1       -0.2463
     12 N          61.5744   93.1817    2.1330 N.ar    1  UNL1       -0.2817
     13 C          61.0780   94.2872    1.2490 C.ar    1  UNL1        0.0796
     14 C          59.7307   94.9314    1.1081 C.ar    1  UNL1        0.0188
     15 C          59.5292   96.0394    0.1174 C.ar    1  UNL1        0.0016
     16 C          60.6748   96.5031   -0.7326 C.ar    1  UNL1        0.0016
     17 C          62.0220   95.8588   -0.5918 C.ar    1  UNL1        0.0188
     18 C          62.2236   94.7509    0.3990 C.ar    1  UNL1        0.0797
     19 C          64.7940   94.0604    0.1512 C.3     1  UNL1        0.1132
     20 C          65.6311   95.2715    0.4379 C.3     1  UNL1        0.0567
     21 C          65.6446   96.4196   -0.5274 C.3     1  UNL1        0.1442
     22 O          65.9944   96.1850   -1.9670 O.3     1  UNL1       -0.3537
     23 C          64.3876   94.7268   -3.3960 C.3     1  UNL1        0.0346
     24 C          64.9072   96.0755   -2.9947 C.3     1  UNL1        0.1422
     25 C          59.0061   89.3946    7.2624 C.3     1  UNL1        0.0795
     26 C          58.9334   87.8964    7.2783 C.3     1  UNL1        0.0264
     27 C          59.6182   87.1238    8.3667 C.3     1  UNL1        0.0729
     28 N          60.3755   87.8495    9.4391 N.3     1  UNL1       -0.2689
     29 C          60.4481   89.3476    9.4231 C.3     1  UNL1        0.0729
     30 C          59.7634   90.1201    8.3348 C.3     1  UNL1        0.0264
     31 C          61.0601   87.0769   10.5273 C.3     1  UNL1        0.0992
     32 C          61.9857   85.9493   10.1783 C.ar    1  UNL1       -0.0031
     33 C          62.3321   84.9168   11.2098 C.ar    1  UNL1        0.0178
     34 C          63.2576   83.7891   10.8608 C.ar    1  UNL1        0.0986
     35 N          63.8368   83.6941    9.4804 N.ar    1  UNL1       -0.2423
     36 C          63.4903   84.7266    8.4490 C.ar    1  UNL1        0.0986
     37 C          62.5648   85.8542    8.7979 C.ar    1  UNL1        0.0178
@<TRIPOS>BOND
     1    23    24    1
     2    24    22    1
     3    22    21    1
     4    21    20    1
     5    20    19    1
     6    19     9    1
     7     9    10   ar
     8    10    11    2
     9    10    12   ar
    10    12     1    1
    11     1     2    1
    12     2     3    1
    13     3     4    1
    14     4     5   am
    15     5     6    2
    16     5    25    1
    17    25    26    1
    18    26    27    1
    19    27    28    1
    20    28    31    1
    21    31    32    1
    22    32    33   ar
    23    33    34   ar
    24    34    35   ar
    25    35    36   ar
    26    36    37   ar
    27    28    29    1
    28    29    30    1
    29     4     7    1
    30     7     8    1
    31    12    13   ar
    32    13    14   ar
    33    14    15   ar
    34    15    16   ar
    35    16    17   ar
    36    17    18   ar
    37    18     9   ar
    38     8     1    1
    39    18    13   ar
    40    30    25    1
    41    37    32   ar
@<TRIPOS>MOLECULE
*****
 37 41 0 0 0
SMALL
GASTEIGER

@<TRIPOS>ATOM
      1 C          62.1329   90.0846   11.1568 C.3     1  UNL1        0.0933
      2 C          62.0004   91.0382   10.0065 C.3     1  UNL1        0.0442
      3 C          61.1829   90.6582    8.8076 C.3     1  UNL1        0.0953
      4 N          60.4981   89.3246    8.7589 N.am    1  UNL1       -0.2794
      5 C          59.6807   88.9446    7.5600 C.2     1  UNL1        0.2252
      6 O          58.9958   87.6110    7.5112 O.2     1  UNL1       -0.2749
      7 C          60.6306   88.3710    9.9091 C.3     1  UNL1        0.0953
      8 C          61.4480   88.7510   11.1080 C.3     1  UNL1        0.0442
      9 N          63.7022   90.7242   14.6487 N.ar    1  UNL1       -0.2799
     10 C          62.6121   90.1618   13.7854 C.ar    1  UNL1        0.3315
     11 O          61.3970   89.4260   14.2672 O.2     1  UNL1       -0.2463
     12 N          62.9503   90.4646   12.3557 N.ar    1  UNL1       -0.2817
     13 C          64.2495   91.2140   12.3355 C.ar    1  UNL1        0.0796
     14 C          65.0694   91.7711   11.2097 C.ar    1  UNL1        0.0188
     15 C          66.3540   92.4886   11.5010 C.ar    1  UNL1        0.0016
     16 C          66.8187   92.6490   12.9182 C.ar    1  UNL1        0.0016
     17 C          65.9988   92.0920   14.0440 C.ar    1  UNL1        0.0188
     18 C          64.7142   91.3745   13.7526 C.ar    1  UNL1        0.0797
     19 C          63.7687   90.6495   16.1454 C.3     1  UNL1        0.1132
     20 C          63.0462   89.5558   16.8745 C.3     1  UNL1        0.0567
     21 C          63.4156   88.1222   16.6334 C.3     1  UNL1        0.1442
     22 O          62.4457   87.0301   16.9748 O.3     1  UNL1       -0.3537
     23 C          63.9118   85.2734   15.7441 C.3     1  UNL1        0.0346
     24 C          62.7984   85.5992   16.6949 C.3     1  UNL1        0.1422
     25 C          59.5482   89.8983    6.4098 C.3     1  UNL1        0.0795
     26 C          58.2028   90.4537    6.0471 C.3     1  UNL1        0.0264
     27 C          58.0704   91.4074    4.8968 C.3     1  UNL1        0.0729
     28 N          59.2833   91.8057    4.1094 N.3     1  UNL1       -0.2689
     29 C          60.6287   91.2503    4.4720 C.3     1  UNL1        0.0729
     30 C          60.7611   90.2966    5.6222 C.3     1  UNL1        0.0264
     31 C          59.1508   92.7593    2.9592 C.3     1  UNL1        0.0992
     32 C          60.2503   92.8683    1.9447 C.ar    1  UNL1       -0.0031
     33 C          60.0011   92.4630    0.5221 C.ar    1  UNL1        0.0178
     34 C          61.1006   92.5720   -0.4924 C.ar    1  UNL1        0.0986
     35 N          62.4493   93.0862   -0.0843 N.ar    1  UNL1       -0.2423
     36 C          62.6985   93.4915    1.3382 C.ar    1  UNL1        0.0986
     37 C          61.5990   93.3825    2.3527 C.ar    1  UNL1        0.0178
@<TRIPOS>BOND
     1    23    24    1
     2    24    22    1
     3    22    21    1
     4    21    20    1
     5    20    19    1
     6    19     9    1
     7     9    10   ar
     8    10    11    2
     9    10    12   ar
    10    12     1    1
    11     1     2    1
    12     2     3    1
    13     3     4    1
    14     4     5   am
    15     5     6    2
    16     5    25    1
    17    25    26    1
    18    26    27    1
    19    27    28    1
    20    28    31    1
    21    31    32    1
    22    32    33   ar
    23    33    34   ar
    24    34    35   ar
    25    35    36   ar
    26    36    37   ar
    27    28    29    1
    28    29    30    1
    29     4     7    1
    30     7     8    1
    31    12    13   ar
    32    13    14   ar
    33    14    15   ar
    34    15    16   ar
    35    16    17   ar
    36    17    18   ar
    37    18     9   ar
    38     8     1    1
    39    18    13   ar
    40    30    25    1
    41    37    32   ar
@<TRIPOS>MOLECULE
*****
 37 41 0 0 0
SMALL
GASTEIGER

@<TRIPOS>ATOM
      1 C          61.3428   92.5449    2.5882 C.3     1  UNL1        0.0933
      2 C          61.9197   91.5294    3.5296 C.3     1  UNL1        0.0442
      3 C          61.0536   90.9072    4.5844 C.3     1  UNL1        0.0953
      4 N          59.6105   91.3005    4.6979 N.am    1  UNL1       -0.2794
      5 C          58.7443   90.6783    5.7527 C.2     1  UNL1        0.2252
      6 O          57.3012   91.0715    5.8662 O.2     1  UNL1       -0.2749
      7 C          59.0336   92.3159    3.7566 C.3     1  UNL1        0.0953
      8 C          59.8998   92.9381    2.7018 C.3     1  UNL1        0.0442
      9 N          63.1696   93.7455   -0.6190 N.ar    1  UNL1       -0.2799
     10 C          62.1157   92.9195    0.0570 C.ar    1  UNL1        0.3315
     11 O          61.1399   92.0061   -0.6239 O.2     1  UNL1       -0.2463
     12 N          62.2090   93.1671    1.5334 N.ar    1  UNL1       -0.2817
     13 C          63.3205   94.1462    1.7700 C.ar    1  UNL1        0.0796
     14 C          63.8687   94.7584    3.0248 C.ar    1  UNL1        0.0188
     15 C          65.0106   95.7281    2.9493 C.ar    1  UNL1        0.0016
     16 C          65.6043   96.0856    1.6190 C.ar    1  UNL1        0.0016
     17 C          65.0561   95.4734    0.3642 C.ar    1  UNL1        0.0188
     18 C          63.9142   94.5037    0.4397 C.ar    1  UNL1        0.0797
     19 C          63.4327   93.8033   -2.0946 C.3     1  UNL1        0.1132
     20 C          62.7180   94.8110   -2.9451 C.3     1  UNL1        0.0567
     21 C          61.2186   94.8295   -2.9859 C.3     1  UNL1        0.1442
     22 O          60.4645   93.6016   -3.4023 O.3     1  UNL1       -0.3537
     23 C          58.1774   92.5236   -2.8045 C.3     1  UNL1        0.0346
     24 C          58.9655   93.6231   -3.4526 C.3     1  UNL1        0.1422
     25 C          59.3213   89.6628    6.6940 C.3     1  UNL1        0.0795
     26 C          59.2649   88.2039    6.3499 C.3     1  UNL1        0.0264
     27 C          59.8419   87.1885    7.2913 C.3     1  UNL1        0.0729
     28 N          60.4753   87.6320    8.5766 N.3     1  UNL1       -0.2689
     29 C          60.5317   89.0910    8.9207 C.3     1  UNL1        0.0729
     30 C          59.9547   90.1063    7.9794 C.3     1  UNL1        0.0264
     31 C          61.0523   86.6166    9.5179 C.3     1  UNL1        0.0992
     32 C          61.8878   87.0619   10.6813 C.ar    1  UNL1       -0.0031
     33 C          62.3786   86.0565   11.6806 C.ar    1  UNL1        0.0178
     34 C          63.2142   86.5018   12.8440 C.ar    1  UNL1        0.0986
     35 N          63.5590   87.9523   13.0082 N.ar    1  UNL1       -0.2423
     36 C          63.0682   88.9577   12.0089 C.ar    1  UNL1        0.0986
     37 C          62.2326   88.5124   10.8455 C.ar    1  UNL1        0.0178
@<TRIPOS>BOND
     1    23    24    1
     2    24    22    1
     3    22    21    1
     4    21    20    1
     5    20    19    1
     6    19     9    1
     7     9    10   ar
     8    10    11    2
     9    10    12   ar
    10    12     1    1
    11     1     2    1
    12     2     3    1
    13     3     4    1
    14     4     5   am
    15     5     6    2
    16     5    25    1
    17    25    26    1
    18    26    27    1
    19    27    28    1
    20    28    31    1
    21    31    32    1
    22    32    33   ar
    23    33    34   ar
    24    34    35   ar
    25    35    36   ar
    26    36    37   ar
    27    28    29    1
    28    29    30    1
    29     4     7    1
    30     7     8    1
    31    12    13   ar
    32    13    14   ar
    33    14    15   ar
    34    15    16   ar
    35    16    17   ar
    36    17    18   ar
    37    18     9   ar
    38     8     1    1
    39    18    13   ar
    40    30    25    1
    41    37    32   ar
@<TRIPOS>MOLECULE
*****
 37 41 0 0 0
SMALL
GASTEIGER

@<TRIPOS>ATOM
      1 C          61.1441   92.3945    2.6529 C.3     1  UNL1        0.0933
      2 C          61.7701   91.5889    3.7526 C.3     1  UNL1        0.0442
      3 C          60.9101   90.9862    4.8237 C.3     1  UNL1        0.0953
      4 N          59.4241   91.1892    4.7952 N.am    1  UNL1       -0.2794
      5 C          58.5641   90.5865    5.8662 C.2     1  UNL1        0.2252
      6 O          57.0782   90.7895    5.8377 O.2     1  UNL1       -0.2749
      7 C          58.7982   91.9948    3.6955 C.3     1  UNL1        0.0953
      8 C          59.6582   92.5974    2.6244 C.3     1  UNL1        0.0442
      9 N          62.9253   93.5685   -0.5897 N.ar    1  UNL1       -0.2799
     10 C          61.8587   92.7752    0.1055 C.ar    1  UNL1        0.3315
     11 O          60.8278   91.9117   -0.5590 O.2     1  UNL1       -0.2463
     12 N          62.0041   92.9972    1.5818 N.ar    1  UNL1       -0.2817
     13 C          63.1605   93.9275    1.7991 C.ar    1  UNL1        0.0796
     14 C          63.7686   94.4988    3.0456 C.ar    1  UNL1        0.0188
     15 C          64.9461   95.4231    2.9500 C.ar    1  UNL1        0.0016
     16 C          65.5154   95.7762    1.6079 C.ar    1  UNL1        0.0016
     17 C          64.9073   95.2049    0.3614 C.ar    1  UNL1        0.0188
     18 C          63.7298   94.2806    0.4570 C.ar    1  UNL1        0.0797
     19 C          63.1482   93.6375   -2.0714 C.3     1  UNL1        0.1132
     20 C          62.4071   94.6485   -2.8951 C.3     1  UNL1        0.0567
     21 C          61.3378   95.4908   -2.2650 C.3     1  UNL1        0.1442
     22 O          60.0002   94.8908   -1.9474 O.3     1  UNL1       -0.3537
     23 C          59.8925   95.8088    0.4808 C.3     1  UNL1        0.0346
     24 C          59.2009   95.4106   -0.7894 C.3     1  UNL1        0.1422
     25 C          59.1901   89.7810    6.9658 C.3     1  UNL1        0.0795
     26 C          60.0150   90.4613    8.0179 C.3     1  UNL1        0.0264
     27 C          60.6410   89.6556    9.1175 C.3     1  UNL1        0.0729
     28 N          60.4421   88.1696    9.1650 N.3     1  UNL1       -0.2689
     29 C          59.6173   87.4893    8.1130 C.3     1  UNL1        0.0729
     30 C          58.9913   88.2949    7.0135 C.3     1  UNL1        0.0264
     31 C          61.0681   87.3641   10.2646 C.3     1  UNL1        0.0992
     32 C          61.9474   86.1955    9.9311 C.ar    1  UNL1       -0.0031
     33 C          62.4391   86.0035    8.5271 C.ar    1  UNL1        0.0178
     34 C          63.3185   84.8350    8.1936 C.ar    1  UNL1        0.0986
     35 N          63.7060   83.8584    9.2641 N.ar    1  UNL1       -0.2423
     36 C          63.2143   84.0504   10.6682 C.ar    1  UNL1        0.0986
     37 C          62.3350   85.2190   11.0017 C.ar    1  UNL1        0.0178
@<TRIPOS>BOND
     1    23    24    1
     2    24    22    1
     3    22    21    1
     4    21    20    1
     5    20    19    1
     6    19     9    1
     7     9    10   ar
     8    10    11    2
     9    10    12   ar
    10    12     1    1
    11     1     2    1
    12     2     3    1
    13     3     4    1
    14     4     5   am
    15     5     6    2
    16     5    25    1
    17    25    26    1
    18    26    27    1
    19    27    28    1
    20    28    31    1
    21    31    32    1
    22    32    33   ar
    23    33    34   ar
    24    34    35   ar
    25    35    36   ar
    26    36    37   ar
    27    28    29    1
    28    29    30    1
    29     4     7    1
    30     7     8    1
    31    12    13   ar
    32    13    14   ar
    33    14    15   ar
    34    15    16   ar
    35    16    17   ar
    36    17    18   ar
    37    18     9   ar
    38     8     1    1
    39    18    13   ar
    40    30    25    1
    41    37    32   ar
