@<TRIPOS>MOLECULE
*****
 20 22 0 0 0
SMALL
GASTEIGER

@<TRIPOS>ATOM
      1 C          64.5221   91.2132   14.2741 C.ar    1  UNL1        0.0014
      2 C          65.8770   91.8258   14.4720 C.ar    1  UNL1       -0.0009
      3 C          66.6085   92.4211   13.3056 C.ar    1  UNL1        0.0188
      4 C          65.9851   92.4039   11.9414 C.ar    1  UNL1        0.0813
      5 N          64.6303   91.7913   11.7435 N.ar    1  UNL1       -0.2442
      6 C          63.8988   91.1960   12.9098 C.ar    1  UNL1        0.0949
      7 C          66.7166   92.9992   10.7750 C.ar    1  UNL1        0.0177
      8 C          66.4025   94.3956   10.3262 C.ar    1  UNL1        0.0015
      9 C          67.1340   94.9909    9.1597 C.ar    1  UNL1        0.0000
     10 C          68.1797   94.1899    8.4422 C.ar    1  UNL1        0.0000
     11 C          68.4939   92.7936    8.8911 C.ar    1  UNL1        0.0000
     12 C          67.7624   92.1982   10.0574 C.ar    1  UNL1        0.0015
     13 C          63.7906   90.6179   15.4405 C.3     1  UNL1        0.0558
     14 C          62.5508   86.4643   18.3060 C.3     1  UNL1        0.0326
     15 C          63.1367   87.0527   17.0568 C.ar    1  UNL1       -0.0030
     16 C          63.6886   86.1529   15.9912 C.ar    1  UNL1        0.0946
     17 N          64.2745   86.7413   14.7420 N.ar    1  UNL1       -0.2430
     18 C          64.3085   88.2296   14.5584 C.ar    1  UNL1        0.0949
     19 C          63.7566   89.1295   15.6240 C.ar    1  UNL1        0.0011
     20 C          63.1707   88.5410   16.8732 C.ar    1  UNL1       -0.0051
@<TRIPOS>BOND
     1    14    15    1
     2    15    16   ar
     3    16    17   ar
     4    17    18   ar
     5    18    19   ar
     6    19    13    1
     7    13     1    1
     8     1     2   ar
     9     2     3   ar
    10     3     4   ar
    11     4     7    1
    12     7     8   ar
    13     8     9   ar
    14     9    10   ar
    15    10    11   ar
    16    11    12   ar
    17     4     5   ar
    18     5     6   ar
    19    19    20   ar
    20    20    15   ar
    21     6     1   ar
    22    12     7   ar
@<TRIPOS>MOLECULE
*****
 20 22 0 0 0
SMALL
GASTEIGER

@<TRIPOS>ATOM
      1 C          61.3782   89.8212   10.6678 C.ar    1  UNL1        0.0014
      2 C          62.3819   90.6666    9.9412 C.ar    1  UNL1       -0.0009
      3 C          63.5405   91.2614   10.6855 C.ar    1  UNL1        0.0188
      4 C          63.6954   91.0108   12.1563 C.ar    1  UNL1        0.0813
      5 N          62.6917   90.1654   12.8828 N.ar    1  UNL1       -0.2442
      6 C          61.5331   89.5706   12.1386 C.ar    1  UNL1        0.0949
      7 C          64.8540   91.6056   12.9005 C.ar    1  UNL1        0.0177
      8 C          65.3587   90.9490   14.1511 C.ar    1  UNL1        0.0015
      9 C          66.5174   91.5438   14.8953 C.ar    1  UNL1        0.0000
     10 C          67.1712   92.7952   14.3889 C.ar    1  UNL1        0.0000
     11 C          66.6664   93.4518   13.1383 C.ar    1  UNL1        0.0000
     12 C          65.5078   92.8570   12.3941 C.ar    1  UNL1        0.0015
     13 C          60.2196   89.2264    9.9236 C.3     1  UNL1        0.0558
     14 C          63.1614   85.1872    8.4985 C.3     1  UNL1        0.0326
     15 C          61.8830   85.9647    8.3924 C.ar    1  UNL1       -0.0030
     16 C          60.7972   85.5002    7.4677 C.ar    1  UNL1        0.0946
     17 N          59.5188   86.2777    7.3616 N.ar    1  UNL1       -0.2430
     18 C          59.3263   87.5198    8.1802 C.ar    1  UNL1        0.0949
     19 C          60.4121   87.9843    9.1049 C.ar    1  UNL1        0.0011
     20 C          61.6905   87.2068    9.2110 C.ar    1  UNL1       -0.0051
@<TRIPOS>BOND
     1    14    15    1
     2    15    16   ar
     3    16    17   ar
     4    17    18   ar
     5    18    19   ar
     6    19    13    1
     7    13     1    1
     8     1     2   ar
     9     2     3   ar
    10     3     4   ar
    11     4     7    1
    12     7     8   ar
    13     8     9   ar
    14     9    10   ar
    15    10    11   ar
    16    11    12   ar
    17     4     5   ar
    18     5     6   ar
    19    19    20   ar
    20    20    15   ar
    21     6     1   ar
    22    12     7   ar
@<TRIPOS>MOLECULE
*****
 20 22 0 0 0
SMALL
GASTEIGER

@<TRIPOS>ATOM
      1 C          64.4469   90.9039   14.5660 C.ar    1  UNL1        0.0014
      2 C          65.8645   91.3608   14.7443 C.ar    1  UNL1       -0.0009
      3 C          66.6138   91.9499   13.5861 C.ar    1  UNL1        0.0188
      4 C          65.9456   92.0823   12.2497 C.ar    1  UNL1        0.0813
      5 N          64.5280   91.6254   12.0714 N.ar    1  UNL1       -0.2442
      6 C          63.7787   91.0362   13.2296 C.ar    1  UNL1        0.0949
      7 C          66.6950   92.6714   11.0916 C.ar    1  UNL1        0.0177
      8 C          66.2994   94.0115   10.5460 C.ar    1  UNL1        0.0015
      9 C          67.0488   94.6006    9.3878 C.ar    1  UNL1        0.0000
     10 C          68.1938   93.8497    8.7753 C.ar    1  UNL1        0.0000
     11 C          68.5893   92.5096    9.3209 C.ar    1  UNL1        0.0000
     12 C          67.8400   91.9205   10.4790 C.ar    1  UNL1        0.0015
     13 C          63.6975   90.3148   15.7242 C.3     1  UNL1        0.0558
     14 C          64.9653   85.5394   14.1152 C.3     1  UNL1        0.0326
     15 C          64.2785   86.4388   15.0997 C.ar    1  UNL1       -0.0030
     16 C          63.5388   85.8501   16.2643 C.ar    1  UNL1        0.0946
     17 N          62.8520   86.7496   17.2488 N.ar    1  UNL1       -0.2430
     18 C          62.9049   88.2378   17.0688 C.ar    1  UNL1        0.0949
     19 C          63.6446   88.8265   15.9042 C.ar    1  UNL1        0.0011
     20 C          64.3314   87.9270   14.9197 C.ar    1  UNL1       -0.0051
@<TRIPOS>BOND
     1    14    15    1
     2    15    16   ar
     3    16    17   ar
     4    17    18   ar
     5    18    19   ar
     6    19    13    1
     7    13     1    1
     8     1     2   ar
     9     2     3   ar
    10     3     4   ar
    11     4     7    1
    12     7     8   ar
    13     8     9   ar
    14     9    10   ar
    15    10    11   ar
    16    11    12   ar
    17     4     5   ar
    18     5     6   ar
    19    19    20   ar
    20    20    15   ar
    21     6     1   ar
    22    12     7   ar
@<TRIPOS>MOLECULE
*****
 20 22 0 0 0
SMALL
GASTEIGER

@<TRIPOS>ATOM
      1 C          63.3145   90.2621   12.5951 C.ar    1  UNL1        0.0014
      2 C          62.7360   90.7999   11.3199 C.ar    1  UNL1       -0.0009
      3 C          62.2083   89.8570   10.2795 C.ar    1  UNL1        0.0188
      4 C          62.2591   88.3764   10.5142 C.ar    1  UNL1        0.0813
      5 N          62.8376   87.8386   11.7894 N.ar    1  UNL1       -0.2442
      6 C          63.3653   88.7814   12.8299 C.ar    1  UNL1        0.0949
      7 C          61.7314   87.4335    9.4738 C.ar    1  UNL1        0.0177
      8 C          60.3320   87.5931    8.9577 C.ar    1  UNL1        0.0015
      9 C          59.8043   86.6502    7.9172 C.ar    1  UNL1        0.0000
     10 C          60.6760   85.5478    7.3929 C.ar    1  UNL1        0.0000
     11 C          62.0753   85.3882    7.9090 C.ar    1  UNL1        0.0000
     12 C          62.6030   86.3311    8.9494 C.ar    1  UNL1        0.0015
     13 C          63.8423   91.2049   13.6355 C.3     1  UNL1        0.0558
     14 C          68.3002   92.0596   16.1646 C.3     1  UNL1        0.0326
     15 C          67.5169   92.0322   14.8857 C.ar    1  UNL1       -0.0030
     16 C          68.1791   92.4048   13.5924 C.ar    1  UNL1        0.0946
     17 N          67.3957   92.3775   12.3135 N.ar    1  UNL1       -0.2430
     18 C          65.9502   91.9775   12.3279 C.ar    1  UNL1        0.0949
     19 C          65.2879   91.6049   13.6211 C.ar    1  UNL1        0.0011
     20 C          66.0713   91.6323   14.9001 C.ar    1  UNL1       -0.0051
@<TRIPOS>BOND
     1    14    15    1
     2    15    16   ar
     3    16    17   ar
     4    17    18   ar
     5    18    19   ar
     6    19    13    1
     7    13     1    1
     8     1     2   ar
     9     2     3   ar
    10     3     4   ar
    11     4     7    1
    12     7     8   ar
    13     8     9   ar
    14     9    10   ar
    15    10    11   ar
    16    11    12   ar
    17     4     5   ar
    18     5     6   ar
    19    19    20   ar
    20    20    15   ar
    21     6     1   ar
    22    12     7   ar
@<TRIPOS>MOLECULE
*****
 20 22 0 0 0
SMALL
GASTEIGER

@<TRIPOS>ATOM
      1 C          62.7039   90.7807   11.3271 C.ar    1  UNL1        0.0014
      2 C          63.8454   91.5855   10.7800 C.ar    1  UNL1       -0.0009
      3 C          64.9855   91.9742   11.6741 C.ar    1  UNL1        0.0188
      4 C          64.9840   91.5580   13.1151 C.ar    1  UNL1        0.0813
      5 N          63.8426   90.7531   13.6622 N.ar    1  UNL1       -0.2442
      6 C          62.7026   90.3645   12.7683 C.ar    1  UNL1        0.0949
      7 C          66.1241   91.9466   14.0091 C.ar    1  UNL1        0.0177
      8 C          65.8588   92.3577   15.4271 C.ar    1  UNL1        0.0015
      9 C          66.9989   92.7464   16.3211 C.ar    1  UNL1        0.0000
     10 C          68.4042   92.7239   15.7971 C.ar    1  UNL1        0.0000
     11 C          68.6695   92.3128   14.3791 C.ar    1  UNL1        0.0000
     12 C          67.5294   91.9242   13.4851 C.ar    1  UNL1        0.0015
     13 C          61.5639   90.3920   10.4331 C.3     1  UNL1        0.0558
     14 C          59.0710   86.7885    7.6403 C.3     1  UNL1        0.0326
     15 C          60.1485   87.1606    8.6152 C.ar    1  UNL1       -0.0030
     16 C          61.0571   86.1032    9.1686 C.ar    1  UNL1        0.0946
     17 N          62.1346   86.4754   10.1435 N.ar    1  UNL1       -0.2430
     18 C          62.3036   87.9049   10.5650 C.ar    1  UNL1        0.0949
     19 C          61.3950   88.9624   10.0116 C.ar    1  UNL1        0.0011
     20 C          60.3175   88.5902    9.0367 C.ar    1  UNL1       -0.0051
@<TRIPOS>BOND
     1    14    15    1
     2    15    16   ar
     3    16    17   ar
     4    17    18   ar
     5    18    19   ar
     6    19    13    1
     7    13     1    1
     8     1     2   ar
     9     2     3   ar
    10     3     4   ar
    11     4     7    1
    12     7     8   ar
    13     8     9   ar
    14     9    10   ar
    15    10    11   ar
    16    11    12   ar
    17     4     5   ar
    18     5     6   ar
    19    19    20   ar
    20    20    15   ar
    21     6     1   ar
    22    12     7   ar
@<TRIPOS>MOLECULE
*****
 20 22 0 0 0
SMALL
GASTEIGER

@<TRIPOS>ATOM
      1 C          63.8348   89.0132   13.4449 C.ar    1  UNL1        0.0014
      2 C          64.4197   88.2428   14.5914 C.ar    1  UNL1       -0.0009
      3 C          64.3008   86.7479   14.6288 C.ar    1  UNL1        0.0188
      4 C          63.5971   86.0235   13.5198 C.ar    1  UNL1        0.0813
      5 N          63.0122   86.7939   12.3733 N.ar    1  UNL1       -0.2442
      6 C          63.1310   88.2887   12.3359 C.ar    1  UNL1        0.0949
      7 C          63.4782   84.5287   13.5572 C.ar    1  UNL1        0.0177
      8 C          64.3448   83.6850   12.6699 C.ar    1  UNL1        0.0015
      9 C          64.2259   82.1902   12.7074 C.ar    1  UNL1        0.0000
     10 C          63.2405   81.5391   13.6321 C.ar    1  UNL1        0.0000
     11 C          62.3740   82.3828   14.5194 C.ar    1  UNL1        0.0000
     12 C          62.4928   83.8776   14.4820 C.ar    1  UNL1        0.0015
     13 C          63.9536   90.5080   13.4075 C.3     1  UNL1        0.0558
     14 C          68.6215   92.3505   14.7550 C.3     1  UNL1        0.0326
     15 C          67.1700   92.1364   15.0668 C.ar    1  UNL1       -0.0030
     16 C          66.6009   92.6294   16.3641 C.ar    1  UNL1        0.0946
     17 N          65.1494   92.4153   16.6759 N.ar    1  UNL1       -0.2430
     18 C          64.2669   91.7081   15.6904 C.ar    1  UNL1        0.0949
     19 C          64.8360   91.2151   14.3931 C.ar    1  UNL1        0.0011
     20 C          66.2876   91.4293   14.0813 C.ar    1  UNL1       -0.0051
@<TRIPOS>BOND
     1    14    15    1
     2    15    16   ar
     3    16    17   ar
     4    17    18   ar
     5    18    19   ar
     6    19    13    1
     7    13     1    1
     8     1     2   ar
     9     2     3   ar
    10     3     4   ar
    11     4     7    1
    12     7     8   ar
    13     8     9   ar
    14     9    10   ar
    15    10    11   ar
    16    11    12   ar
    17     4     5   ar
    18     5     6   ar
    19    19    20   ar
    20    20    15   ar
    21     6     1   ar
    22    12     7   ar
@<TRIPOS>MOLECULE
*****
 20 22 0 0 0
SMALL
GASTEIGER

@<TRIPOS>ATOM
      1 C          63.7714   89.2992   13.5972 C.ar    1  UNL1        0.0014
      2 C          64.3385   88.3898   14.6466 C.ar    1  UNL1       -0.0009
      3 C          64.2352   86.9020   14.4853 C.ar    1  UNL1        0.0188
      4 C          63.5647   86.3238   13.2745 C.ar    1  UNL1        0.0813
      5 N          62.9976   87.2332   12.2250 N.ar    1  UNL1       -0.2442
      6 C          63.1009   88.7209   12.3864 C.ar    1  UNL1        0.0949
      7 C          63.4614   84.8361   13.1132 C.ar    1  UNL1        0.0177
      8 C          63.8285   83.9309   14.2515 C.ar    1  UNL1        0.0015
      9 C          63.7252   82.4432   14.0901 C.ar    1  UNL1        0.0000
     10 C          63.2546   81.8606   12.7905 C.ar    1  UNL1        0.0000
     11 C          62.8875   82.7658   11.6521 C.ar    1  UNL1        0.0000
     12 C          62.9908   84.2535   11.8134 C.ar    1  UNL1        0.0015
     13 C          63.8748   90.7869   13.7585 C.3     1  UNL1        0.0558
     14 C          68.2266   92.1916   16.2259 C.3     1  UNL1        0.0326
     15 C          67.3955   92.1536   14.9778 C.ar    1  UNL1       -0.0030
     16 C          67.9091   92.7799   13.7154 C.ar    1  UNL1        0.0946
     17 N          67.0780   92.7419   12.4673 N.ar    1  UNL1       -0.2430
     18 C          65.7332   92.0776   12.4816 C.ar    1  UNL1        0.0949
     19 C          65.2196   91.4513   13.7441 C.ar    1  UNL1        0.0011
     20 C          66.0507   91.4892   14.9922 C.ar    1  UNL1       -0.0051
@<TRIPOS>BOND
     1    14    15    1
     2    15    16   ar
     3    16    17   ar
     4    17    18   ar
     5    18    19   ar
     6    19    13    1
     7    13     1    1
     8     1     2   ar
     9     2     3   ar
    10     3     4   ar
    11     4     7    1
    12     7     8   ar
    13     8     9   ar
    14     9    10   ar
    15    10    11   ar
    16    11    12   ar
    17     4     5   ar
    18     5     6   ar
    19    19    20   ar
    20    20    15   ar
    21     6     1   ar
    22    12     7   ar
@<TRIPOS>MOLECULE
*****
 20 22 0 0 0
SMALL
GASTEIGER

@<TRIPOS>ATOM
      1 C          62.6426   88.8351   11.4671 C.ar    1  UNL1        0.0014
      2 C          62.0215   87.8779   10.4934 C.ar    1  UNL1       -0.0009
      3 C          62.0935   86.4007   10.7442 C.ar    1  UNL1        0.0188
      4 C          62.7866   85.8808   11.9686 C.ar    1  UNL1        0.0813
      5 N          63.4077   86.8380   12.9423 N.ar    1  UNL1       -0.2442
      6 C          63.3357   88.3151   12.6916 C.ar    1  UNL1        0.0949
      7 C          62.8586   84.4037   12.2194 C.ar    1  UNL1        0.0177
      8 C          62.5977   83.8627   13.5939 C.ar    1  UNL1        0.0015
      9 C          62.6697   82.3855   13.8446 C.ar    1  UNL1        0.0000
     10 C          63.0027   81.4494   12.7209 C.ar    1  UNL1        0.0000
     11 C          63.2636   81.9904   11.3464 C.ar    1  UNL1        0.0000
     12 C          63.1916   83.4675   11.0956 C.ar    1  UNL1        0.0015
     13 C          62.5705   90.3122   11.2163 C.3     1  UNL1        0.0558
     14 C          66.4595   93.5405   10.0104 C.3     1  UNL1        0.0326
     15 C          65.6450   92.8156   11.0405 C.ar    1  UNL1       -0.0030
     16 C          65.9605   92.9799   12.4977 C.ar    1  UNL1        0.0946
     17 N          65.1460   92.2550   13.5278 N.ar    1  UNL1       -0.2430
     18 C          64.0160   91.3658   13.1007 C.ar    1  UNL1        0.0949
     19 C          63.7006   91.2015   11.6435 C.ar    1  UNL1        0.0011
     20 C          64.5151   91.9264   10.6134 C.ar    1  UNL1       -0.0051
@<TRIPOS>BOND
     1    14    15    1
     2    15    16   ar
     3    16    17   ar
     4    17    18   ar
     5    18    19   ar
     6    19    13    1
     7    13     1    1
     8     1     2   ar
     9     2     3   ar
    10     3     4   ar
    11     4     7    1
    12     7     8   ar
    13     8     9   ar
    14     9    10   ar
    15    10    11   ar
    16    11    12   ar
    17     4     5   ar
    18     5     6   ar
    19    19    20   ar
    20    20    15   ar
    21     6     1   ar
    22    12     7   ar
@<TRIPOS>MOLECULE
*****
 20 22 0 0 0
SMALL
GASTEIGER

@<TRIPOS>ATOM
      1 C          63.9442   88.4273   14.1385 C.ar    1  UNL1        0.0014
      2 C          64.4388   87.2565   14.9351 C.ar    1  UNL1       -0.0009
      3 C          64.2515   85.8622   14.4145 C.ar    1  UNL1        0.0188
      4 C          63.5697   85.6388   13.0972 C.ar    1  UNL1        0.0813
      5 N          63.0752   86.8096   12.3006 N.ar    1  UNL1       -0.2442
      6 C          63.2624   88.2038   12.8212 C.ar    1  UNL1        0.0949
      7 C          63.3825   84.2446   12.5766 C.ar    1  UNL1        0.0177
      8 C          63.9638   83.8550   11.2498 C.ar    1  UNL1        0.0015
      9 C          63.7765   82.4607   10.7292 C.ar    1  UNL1        0.0000
     10 C          63.0080   81.4561   11.5354 C.ar    1  UNL1        0.0000
     11 C          62.4267   81.8456   12.8622 C.ar    1  UNL1        0.0000
     12 C          62.6139   83.2398   13.3828 C.ar    1  UNL1        0.0015
     13 C          64.1315   89.8215   14.6591 C.3     1  UNL1        0.0558
     14 C          65.1291   92.9647   10.6435 C.3     1  UNL1        0.0326
     15 C          65.5503   92.3415   11.9413 C.ar    1  UNL1       -0.0030
     16 C          66.8914   92.6668   12.5291 C.ar    1  UNL1        0.0946
     17 N          67.3125   92.0437   13.8269 N.ar    1  UNL1       -0.2430
     18 C          66.3926   91.0952   14.5369 C.ar    1  UNL1        0.0949
     19 C          65.0515   90.7699   13.9491 C.ar    1  UNL1        0.0011
     20 C          64.6303   91.3931   12.6513 C.ar    1  UNL1       -0.0051
@<TRIPOS>BOND
     1    14    15    1
     2    15    16   ar
     3    16    17   ar
     4    17    18   ar
     5    18    19   ar
     6    19    13    1
     7    13     1    1
     8     1     2   ar
     9     2     3   ar
    10     3     4   ar
    11     4     7    1
    12     7     8   ar
    13     8     9   ar
    14     9    10   ar
    15    10    11   ar
    16    11    12   ar
    17     4     5   ar
    18     5     6   ar
    19    19    20   ar
    20    20    15   ar
    21     6     1   ar
    22    12     7   ar
