@<TRIPOS>MOLECULE
*****
 36 40 0 0 0
SMALL
GASTEIGER

@<TRIPOS>ATOM
      1 C          63.4970   87.5547   13.0775 C.3     1  UNL1        0.0744
      2 C          64.3227   87.1763   14.2712 C.3     1  UNL1        0.0121
      3 C          63.3634   86.1063   12.7108 C.ar    1  UNL1       -0.0159
      4 C          63.8292   85.0455   13.6635 C.ar    1  UNL1       -0.0039
      5 C          63.6956   83.5971   13.2968 C.ar    1  UNL1       -0.0002
      6 C          63.0963   83.2097   11.9775 C.ar    1  UNL1        0.0030
      7 C          62.6305   84.2705   11.0248 C.ar    1  UNL1       -0.0002
      8 C          62.7641   85.7188   11.3915 C.ar    1  UNL1       -0.0039
      9 C          62.9627   81.7612   11.6109 C.ar    1  UNL1        0.0384
     10 C          63.1634   81.3258   10.1896 C.ar    1  UNL1        0.1033
     11 N          63.0298   79.8774    9.8229 N.ar    1  UNL1       -0.2125
     12 C          62.6956   78.8645   10.8776 C.ar    1  UNL1        0.2137
     13 N          62.5621   77.4161   10.5111 N.pl3   1  UNL1       -0.3274
     14 N          62.4950   79.3000   12.2990 N.ar    1  UNL1       -0.2125
     15 C          62.6286   80.7484   12.6656 C.ar    1  UNL1        0.1033
     16 H          62.6938   77.1303    9.5782 H       1  UNL1        0.1452
     17 H          62.3428   76.7514   11.2033 H       1  UNL1        0.1452
     18 C          64.4476   91.2845   13.5773 C.ar    1  UNL1        0.2628
     19 N          64.6984   89.9396   12.9622 N.ar    1  UNL1       -0.1907
     20 C          63.6305   89.0030   13.4441 C.ar    1  UNL1        0.1837
     21 N          62.7196   89.7690   14.3571 N.ar    1  UNL1       -0.0599
     22 O          63.2246   91.1791   14.4394 O.2     1  UNL1       -0.3326
     23 N          66.3185   94.4484   12.3302 N.ar    1  UNL1       -0.2468
     24 C          65.3908   93.2946   12.0890 C.ar    1  UNL1        0.1015
     25 C          65.2745   92.5182   13.3672 C.ar    1  UNL1        0.0956
     26 C          66.1303   93.1922   14.3983 C.ar    1  UNL1        0.1264
     27 N          66.7755   94.3851   13.7575 N.ar    1  UNL1       -0.1674
     28 C          66.7189   95.4837   11.3213 C.3     1  UNL1        0.1541
     29 C          67.6599   94.3468    9.7976 C.3     1  UNL1        0.0314
     30 C          66.4625   95.2478    9.8624 C.3     1  UNL1        0.1110
     31 C          65.2649   96.1488    9.9272 C.3     1  UNL1        0.0314
     32 O          66.2061   95.0118    8.4034 O.3     1  UNL1       -0.3848
     33 H          66.8809   94.4116    8.0495 H       1  UNL1        0.2103
     34 C          62.6712   87.9330   11.8838 C.3     1  UNL1        0.0106
     35 C          62.5739   88.4996   10.4983 C.3     1  UNL1        0.0008
     36 C          61.3382   88.0218   11.2017 C.3     1  UNL1        0.0008
@<TRIPOS>BOND
     1    29    30    1
     2    30    31    1
     3    30    32    1
     4    30    28    1
     5    28    23    1
     6    23    24   ar
     7    24    25   ar
     8    25    18    1
     9    18    19   ar
    10    19    20   ar
    11    20     1    1
    12     1     2    1
    13     1     3    1
    14     3     4   ar
    15     4     5   ar
    16     5     6   ar
    17     6     9    1
    18     9    10   ar
    19    10    11   ar
    20    11    12   ar
    21    12    13    1
    22    12    14   ar
    23    14    15   ar
    24     6     7   ar
    25     7     8   ar
    26     1    34    1
    27    34    35    1
    28    35    36    1
    29    20    21   ar
    30    21    22   ar
    31    25    26   ar
    32    26    27   ar
    33    27    23   ar
    34    22    18   ar
    35     8     3   ar
    36    36    34    1
    37    15     9   ar
    38    32    33    1
    39    13    16    1
    40    13    17    1
@<TRIPOS>MOLECULE
*****
 36 40 0 0 0
SMALL
GASTEIGER

@<TRIPOS>ATOM
      1 C          63.5230   87.4420   13.0959 C.3     1  UNL1        0.0744
      2 C          62.9457   87.8453   11.7715 C.3     1  UNL1        0.0121
      3 C          63.3874   85.9974   12.7150 C.ar    1  UNL1       -0.0159
      4 C          62.5310   85.6069   11.5472 C.ar    1  UNL1       -0.0039
      5 C          62.3954   84.1625   11.1663 C.ar    1  UNL1       -0.0002
      6 C          63.1164   83.1085   11.9533 C.ar    1  UNL1        0.0030
      7 C          63.9729   83.4990   13.1212 C.ar    1  UNL1       -0.0002
      8 C          64.1084   84.9435   13.5020 C.ar    1  UNL1       -0.0039
      9 C          62.9809   81.6639   11.5724 C.ar    1  UNL1        0.0384
     10 C          62.6600   80.6391   12.6196 C.ar    1  UNL1        0.1033
     11 N          62.5244   79.1946   12.2387 N.ar    1  UNL1       -0.2125
     12 C          62.7098   78.7750   10.8106 C.ar    1  UNL1        0.2137
     13 N          62.5742   77.3305   10.4296 N.pl3   1  UNL1       -0.3274
     14 N          63.0307   79.7999    9.7633 N.ar    1  UNL1       -0.2125
     15 C          63.1662   81.2443   10.1443 C.ar    1  UNL1        0.1033
     16 H          62.3636   76.6578   11.1169 H       1  UNL1        0.1452
     17 H          62.6959   77.0551    9.4923 H       1  UNL1        0.1452
     18 C          64.4767   91.1663   13.6297 C.ar    1  UNL1        0.2628
     19 N          64.7246   89.8277   12.9998 N.ar    1  UNL1       -0.1907
     20 C          63.6585   88.8864   13.4768 C.ar    1  UNL1        0.1837
     21 N          62.7518   89.6433   14.4014 N.ar    1  UNL1       -0.0599
     22 O          63.2574   91.0523   14.4960 O.2     1  UNL1       -0.3326
     23 N          66.3291   94.3524   12.4122 N.ar    1  UNL1       -0.2468
     24 C          65.3916   93.2077   12.1665 C.ar    1  UNL1        0.1015
     25 C          65.3030   92.4019   13.4286 C.ar    1  UNL1        0.0956
     26 C          66.1859   93.0487   14.4543 C.ar    1  UNL1        0.1264
     27 N          66.8201   94.2542   13.8262 N.ar    1  UNL1       -0.1674
     28 C          66.7091   95.4099   11.4184 C.3     1  UNL1        0.1541
     29 C          67.6511   94.2934    9.8802 C.3     1  UNL1        0.0314
     30 C          66.4526   95.1921    9.9566 C.3     1  UNL1        0.1110
     31 C          65.2541   96.0909   10.0331 C.3     1  UNL1        0.0314
     32 O          66.1961   94.9744    8.4949 O.3     1  UNL1       -0.3848
     33 H          66.8716   94.3796    8.1332 H       1  UNL1        0.2103
     34 C          64.1002   87.0386   14.4203 C.3     1  UNL1        0.0106
     35 C          63.9308   86.7909   15.8899 C.3     1  UNL1        0.0008
     36 C          65.2695   86.5877   15.2446 C.3     1  UNL1        0.0008
@<TRIPOS>BOND
     1    29    30    1
     2    30    31    1
     3    30    32    1
     4    30    28    1
     5    28    23    1
     6    23    24   ar
     7    24    25   ar
     8    25    18    1
     9    18    19   ar
    10    19    20   ar
    11    20     1    1
    12     1     2    1
    13     1     3    1
    14     3     4   ar
    15     4     5   ar
    16     5     6   ar
    17     6     9    1
    18     9    10   ar
    19    10    11   ar
    20    11    12   ar
    21    12    13    1
    22    12    14   ar
    23    14    15   ar
    24     6     7   ar
    25     7     8   ar
    26     1    34    1
    27    34    35    1
    28    35    36    1
    29    20    21   ar
    30    21    22   ar
    31    25    26   ar
    32    26    27   ar
    33    27    23   ar
    34    22    18   ar
    35     8     3   ar
    36    36    34    1
    37    15     9   ar
    38    32    33    1
    39    13    16    1
    40    13    17    1
@<TRIPOS>MOLECULE
*****
 36 40 0 0 0
SMALL
GASTEIGER

@<TRIPOS>ATOM
      1 C          60.4129   87.9241    8.1913 C.3     1  UNL1        0.0744
      2 C          59.9880   86.8109    7.2801 C.3     1  UNL1        0.0121
      3 C          61.0126   86.9234    9.1342 C.ar    1  UNL1       -0.0159
      4 C          60.6615   86.9622   10.5919 C.ar    1  UNL1       -0.0039
      5 C          61.2612   85.9615   11.5347 C.ar    1  UNL1       -0.0002
      6 C          62.2121   84.9220   11.0198 C.ar    1  UNL1        0.0030
      7 C          62.5633   84.8832    9.5620 C.ar    1  UNL1       -0.0002
      8 C          61.9635   85.8838    8.6192 C.ar    1  UNL1       -0.0039
      9 C          62.8119   83.9213   11.9627 C.ar    1  UNL1        0.0384
     10 C          63.2966   84.3597   13.3128 C.ar    1  UNL1        0.1033
     11 N          63.8963   83.3590   14.2557 N.ar    1  UNL1       -0.2125
     12 C          64.0113   81.9199   13.8484 C.ar    1  UNL1        0.2137
     13 N          64.6110   80.9192   14.7912 N.pl3   1  UNL1       -0.3274
     14 N          63.5265   81.4816   12.4982 N.ar    1  UNL1       -0.2125
     15 C          62.9268   82.4822   11.5554 C.ar    1  UNL1        0.1033
     16 H          64.9292   81.2069   15.6773 H       1  UNL1        0.1452
     17 H          64.6865   79.9747   14.5239 H       1  UNL1        0.1452
     18 C          59.5756   90.6410    5.5490 C.ar    1  UNL1        0.2628
     19 N          60.5694   89.7985    6.2921 N.ar    1  UNL1       -0.1907
     20 C          59.8132   88.9247    7.2484 C.ar    1  UNL1        0.1837
     21 N          58.3519   89.2272    7.0963 N.ar    1  UNL1       -0.0599
     22 O          58.2050   90.2880    6.0459 O.2     1  UNL1       -0.3326
     23 N          61.0639   92.9106    2.7742 N.ar    1  UNL1       -0.2468
     24 C          61.1762   91.7501    3.7179 C.ar    1  UNL1        0.1015
     25 C          59.8960   91.6581    4.4940 C.ar    1  UNL1        0.0956
     26 C          58.9923   92.7618    4.0300 C.ar    1  UNL1        0.1264
     27 N          59.7141   93.5359    2.9671 N.ar    1  UNL1       -0.1674
     28 C          62.1165   93.3660    1.8073 C.3     1  UNL1        0.1541
     29 C          61.3174   92.4629    0.0621 C.3     1  UNL1        0.0314
     30 C          61.7224   93.8554    0.4453 C.3     1  UNL1        0.1110
     31 C          62.1275   95.2479    0.8285 C.3     1  UNL1        0.0314
     32 O          61.3284   94.3448   -0.9168 O.3     1  UNL1       -0.3848
     33 H          60.9965   93.6013   -1.4440 H       1  UNL1        0.2103
     34 C          60.8377   89.0373    9.1024 C.3     1  UNL1        0.0106
     35 C          60.4887   90.1280   10.0711 C.3     1  UNL1        0.0008
     36 C          61.9228   89.8747    9.7119 C.3     1  UNL1        0.0008
@<TRIPOS>BOND
     1    29    30    1
     2    30    31    1
     3    30    32    1
     4    30    28    1
     5    28    23    1
     6    23    24   ar
     7    24    25   ar
     8    25    18    1
     9    18    19   ar
    10    19    20   ar
    11    20     1    1
    12     1     2    1
    13     1     3    1
    14     3     4   ar
    15     4     5   ar
    16     5     6   ar
    17     6     9    1
    18     9    10   ar
    19    10    11   ar
    20    11    12   ar
    21    12    13    1
    22    12    14   ar
    23    14    15   ar
    24     6     7   ar
    25     7     8   ar
    26     1    34    1
    27    34    35    1
    28    35    36    1
    29    20    21   ar
    30    21    22   ar
    31    25    26   ar
    32    26    27   ar
    33    27    23   ar
    34    22    18   ar
    35     8     3   ar
    36    36    34    1
    37    15     9   ar
    38    32    33    1
    39    13    16    1
    40    13    17    1
@<TRIPOS>MOLECULE
*****
 36 40 0 0 0
SMALL
GASTEIGER

@<TRIPOS>ATOM
      1 C          63.0917   86.2712   12.5422 C.3     1  UNL1        0.0744
      2 C          63.8808   85.9523   13.7774 C.3     1  UNL1        0.0121
      3 C          63.0519   84.8133   12.1913 C.ar    1  UNL1       -0.0159
      4 C          63.5196   84.3536   10.8423 C.ar    1  UNL1       -0.0039
      5 C          63.4798   82.8958   10.4914 C.ar    1  UNL1       -0.0002
      6 C          62.9724   81.8977   11.4896 C.ar    1  UNL1        0.0030
      7 C          62.5047   82.3574   12.8386 C.ar    1  UNL1       -0.0002
      8 C          62.5445   83.8152   13.1894 C.ar    1  UNL1       -0.0039
      9 C          62.9326   80.4398   11.1386 C.ar    1  UNL1        0.0384
     10 C          63.1579   80.0031    9.7214 C.ar    1  UNL1        0.1033
     11 N          63.1181   78.5452    9.3705 N.ar    1  UNL1       -0.2125
     12 C          62.8530   77.5241   10.4368 C.ar    1  UNL1        0.2137
     13 N          62.8132   76.0663   10.0860 N.pl3   1  UNL1       -0.3274
     14 N          62.6277   77.9609   11.8541 N.ar    1  UNL1       -0.2125
     15 C          62.6675   79.4187   12.2049 C.ar    1  UNL1        0.1033
     16 H          62.9611   75.7796    9.1558 H       1  UNL1        0.1452
     17 H          62.6392   75.3961   10.7858 H       1  UNL1        0.1452
     18 C          63.6700   89.8246   13.9927 C.ar    1  UNL1        0.2628
     19 N          63.9270   88.3468   14.0047 N.ar    1  UNL1       -0.1907
     20 C          63.1315   87.7290   12.8932 C.ar    1  UNL1        0.1837
     21 N          62.3828   88.8249   12.1943 N.ar    1  UNL1       -0.0599
     22 O          62.7156   90.1201   12.8738 O.2     1  UNL1       -0.3326
     23 N          65.8112   92.3767   15.9846 N.ar    1  UNL1       -0.2468
     24 C          65.6396   91.4193   14.8427 C.ar    1  UNL1        0.1015
     25 C          64.2632   90.8303   14.9344 C.ar    1  UNL1        0.0956
     26 C          63.5840   91.4236   16.1330 C.ar    1  UNL1        0.1264
     27 N          64.5407   92.3793   16.7821 N.ar    1  UNL1       -0.1674
     28 C          67.0378   93.1888   16.2777 C.3     1  UNL1        0.1541
     29 C          67.5275   93.8646   14.3275 C.3     1  UNL1        0.0314
     30 C          68.2403   93.0789   15.3879 C.3     1  UNL1        0.1110
     31 C          68.9531   92.2931   16.4483 C.3     1  UNL1        0.0314
     32 O          69.4428   92.9690   14.4980 O.3     1  UNL1       -0.3848
     33 H          69.2674   93.4244   13.6597 H       1  UNL1        0.2103
     34 C          62.3027   86.5901   11.3071 C.3     1  UNL1        0.0106
     35 C          61.0796   86.3959   10.4608 C.3     1  UNL1        0.0008
     36 C          62.1591   87.3366   10.0140 C.3     1  UNL1        0.0008
@<TRIPOS>BOND
     1    29    30    1
     2    30    31    1
     3    30    32    1
     4    30    28    1
     5    28    23    1
     6    23    24   ar
     7    24    25   ar
     8    25    18    1
     9    18    19   ar
    10    19    20   ar
    11    20     1    1
    12     1     2    1
    13     1     3    1
    14     3     4   ar
    15     4     5   ar
    16     5     6   ar
    17     6     9    1
    18     9    10   ar
    19    10    11   ar
    20    11    12   ar
    21    12    13    1
    22    12    14   ar
    23    14    15   ar
    24     6     7   ar
    25     7     8   ar
    26     1    34    1
    27    34    35    1
    28    35    36    1
    29    20    21   ar
    30    21    22   ar
    31    25    26   ar
    32    26    27   ar
    33    27    23   ar
    34    22    18   ar
    35     8     3   ar
    36    36    34    1
    37    15     9   ar
    38    32    33    1
    39    13    16    1
    40    13    17    1
@<TRIPOS>MOLECULE
*****
 36 40 0 0 0
SMALL
GASTEIGER

@<TRIPOS>ATOM
      1 C          62.9303   86.7027   12.0337 C.3     1  UNL1        0.0744
      2 C          63.7372   86.5025   13.2822 C.3     1  UNL1        0.0121
      3 C          62.8986   85.2188   11.8163 C.ar    1  UNL1       -0.0159
      4 C          62.4573   84.3079   12.9232 C.ar    1  UNL1       -0.0039
      5 C          62.4256   82.8241   12.7058 C.ar    1  UNL1       -0.0002
      6 C          62.8353   82.2512   11.3814 C.ar    1  UNL1        0.0030
      7 C          63.2766   83.1622   10.2744 C.ar    1  UNL1       -0.0002
      8 C          63.3082   84.6459   10.4919 C.ar    1  UNL1       -0.0039
      9 C          62.8036   80.7674   11.1640 C.ar    1  UNL1        0.0384
     10 C          62.6044   79.8429   12.3283 C.ar    1  UNL1        0.1033
     11 N          62.5727   78.3590   12.1109 N.ar    1  UNL1       -0.2125
     12 C          62.7402   77.7997   10.7291 C.ar    1  UNL1        0.2137
     13 N          62.7085   76.3159   10.5117 N.pl3   1  UNL1       -0.3274
     14 N          62.9394   78.7243    9.5648 N.ar    1  UNL1       -0.2125
     15 C          62.9711   80.2081    9.7823 C.ar    1  UNL1        0.1033
     16 H          62.5778   75.7091   11.2759 H       1  UNL1        0.1452
     17 H          62.8185   75.9488    9.6048 H       1  UNL1        0.1452
     18 C          63.7594   90.4478   12.6264 C.ar    1  UNL1        0.2628
     19 N          64.1918   89.0231   12.4447 N.ar    1  UNL1       -0.1907
     20 C          62.9620   88.1865   12.2511 C.ar    1  UNL1        0.1837
     21 N          61.7694   89.0942   12.3131 N.ar    1  UNL1       -0.0599
     22 O          62.2622   90.4918   12.5450 O.2     1  UNL1       -0.3326
     23 N          66.2442   93.1586   13.8685 N.ar    1  UNL1       -0.2468
     24 C          65.4975   91.8737   14.0723 C.ar    1  UNL1        0.1015
     25 C          64.6651   91.6225   12.8501 C.ar    1  UNL1        0.0956
     26 C          64.8973   92.7520   11.8909 C.ar    1  UNL1        0.1264
     27 N          65.8733   93.7014   12.5202 N.ar    1  UNL1       -0.1674
     28 C          67.1950   93.7898   14.8420 C.3     1  UNL1        0.1541
     29 C          69.2008   93.1081   14.9505 C.3     1  UNL1        0.0314
     30 C          67.9733   92.9312   15.7943 C.3     1  UNL1        0.1110
     31 C          66.7457   92.7543   16.6380 C.3     1  UNL1        0.0314
     32 O          68.7516   92.0726   16.7465 O.3     1  UNL1       -0.3848
     33 H          69.6678   91.9953   16.4374 H       1  UNL1        0.2103
     34 C          62.1234   86.9029   10.7852 C.3     1  UNL1        0.0106
     35 C          60.8507   86.7076   10.0157 C.3     1  UNL1        0.0008
     36 C          61.9985   87.4449    9.3921 C.3     1  UNL1        0.0008
@<TRIPOS>BOND
     1    29    30    1
     2    30    31    1
     3    30    32    1
     4    30    28    1
     5    28    23    1
     6    23    24   ar
     7    24    25   ar
     8    25    18    1
     9    18    19   ar
    10    19    20   ar
    11    20     1    1
    12     1     2    1
    13     1     3    1
    14     3     4   ar
    15     4     5   ar
    16     5     6   ar
    17     6     9    1
    18     9    10   ar
    19    10    11   ar
    20    11    12   ar
    21    12    13    1
    22    12    14   ar
    23    14    15   ar
    24     6     7   ar
    25     7     8   ar
    26     1    34    1
    27    34    35    1
    28    35    36    1
    29    20    21   ar
    30    21    22   ar
    31    25    26   ar
    32    26    27   ar
    33    27    23   ar
    34    22    18   ar
    35     8     3   ar
    36    36    34    1
    37    15     9   ar
    38    32    33    1
    39    13    16    1
    40    13    17    1
@<TRIPOS>MOLECULE
*****
 36 40 0 0 0
SMALL
GASTEIGER

@<TRIPOS>ATOM
      1 C          60.4361   88.2577    8.4803 C.3     1  UNL1        0.0744
      2 C          60.9345   89.5070    9.1441 C.3     1  UNL1        0.0121
      3 C          61.0666   87.4315    9.5621 C.ar    1  UNL1       -0.0159
      4 C          62.1169   86.4182    9.2160 C.ar    1  UNL1       -0.0039
      5 C          62.7473   85.5921   10.2977 C.ar    1  UNL1       -0.0002
      6 C          62.3274   85.7794   11.7255 C.ar    1  UNL1        0.0030
      7 C          61.2771   86.7928   12.0716 C.ar    1  UNL1       -0.0002
      8 C          60.6467   87.6188   10.9898 C.ar    1  UNL1       -0.0039
      9 C          62.9579   84.9533   12.8072 C.ar    1  UNL1        0.0384
     10 C          62.7120   83.4746   12.8613 C.ar    1  UNL1        0.1033
     11 N          63.3424   82.6484   13.9430 N.ar    1  UNL1       -0.2125
     12 C          64.2189   83.3011   14.9706 C.ar    1  UNL1        0.2137
     13 N          64.8493   82.4750   16.0523 N.pl3   1  UNL1       -0.3274
     14 N          64.4648   84.7798   14.9165 N.ar    1  UNL1       -0.2125
     15 C          63.8343   85.6059   13.8348 C.ar    1  UNL1        0.1033
     16 H          64.6879   81.5045   16.0878 H       1  UNL1        0.1452
     17 H          65.4245   82.9034   16.7267 H       1  UNL1        0.1452
     18 C          59.5121   90.6102    5.5347 C.ar    1  UNL1        0.2628
     19 N          60.5297   89.9821    6.4401 N.ar    1  UNL1       -0.1907
     20 C          59.8057   89.0838    7.3987 C.ar    1  UNL1        0.1837
     21 N          58.3405   89.1567    7.0856 N.ar    1  UNL1       -0.0599
     22 O          58.1590   90.1001    5.9336 O.2     1  UNL1       -0.3326
     23 N          60.9628   92.8838    2.7434 N.ar    1  UNL1       -0.2468
     24 C          61.1405   91.8490    3.8146 C.ar    1  UNL1        0.1015
     25 C          59.7973   91.5784    4.4251 C.ar    1  UNL1        0.0956
     26 C          58.7895   92.4460    3.7311 C.ar    1  UNL1        0.1264
     27 N          59.5098   93.2528    2.6918 N.ar    1  UNL1       -0.1674
     28 C          62.0476   93.4503    1.8760 C.3     1  UNL1        0.1541
     29 C          61.5029   92.4470    0.0881 C.3     1  UNL1        0.0314
     30 C          61.7387   93.8778    0.4718 C.3     1  UNL1        0.1110
     31 C          61.9746   95.3086    0.8556 C.3     1  UNL1        0.0314
     32 O          61.4298   94.3053   -0.9324 O.3     1  UNL1       -0.3848
     33 H          61.2195   93.5251   -1.4690 H       1  UNL1        0.2103
     34 C          59.9377   87.0083    7.8166 C.3     1  UNL1        0.0106
     35 C          58.8048   86.0984    7.4445 C.3     1  UNL1        0.0008
     36 C          60.2073   85.7542    7.0390 C.3     1  UNL1        0.0008
@<TRIPOS>BOND
     1    29    30    1
     2    30    31    1
     3    30    32    1
     4    30    28    1
     5    28    23    1
     6    23    24   ar
     7    24    25   ar
     8    25    18    1
     9    18    19   ar
    10    19    20   ar
    11    20     1    1
    12     1     2    1
    13     1     3    1
    14     3     4   ar
    15     4     5   ar
    16     5     6   ar
    17     6     9    1
    18     9    10   ar
    19    10    11   ar
    20    11    12   ar
    21    12    13    1
    22    12    14   ar
    23    14    15   ar
    24     6     7   ar
    25     7     8   ar
    26     1    34    1
    27    34    35    1
    28    35    36    1
    29    20    21   ar
    30    21    22   ar
    31    25    26   ar
    32    26    27   ar
    33    27    23   ar
    34    22    18   ar
    35     8     3   ar
    36    36    34    1
    37    15     9   ar
    38    32    33    1
    39    13    16    1
    40    13    17    1
@<TRIPOS>MOLECULE
*****
 36 40 0 0 0
SMALL
GASTEIGER

@<TRIPOS>ATOM
      1 C          63.1745   86.5797   12.7407 C.3     1  UNL1        0.0744
      2 C          62.4620   86.9296   11.4680 C.3     1  UNL1        0.0121
      3 C          63.1094   85.1258   12.3773 C.ar    1  UNL1       -0.0159
      4 C          63.3026   84.6995   10.9522 C.ar    1  UNL1       -0.0039
      5 C          63.2375   83.2456   10.5890 C.ar    1  UNL1       -0.0002
      6 C          62.9792   82.2181   11.6508 C.ar    1  UNL1        0.0030
      7 C          62.7861   82.6443   13.0758 C.ar    1  UNL1       -0.0002
      8 C          62.8512   84.0982   13.4391 C.ar    1  UNL1       -0.0039
      9 C          62.9141   80.7641   11.2874 C.ar    1  UNL1        0.0384
     10 C          63.1720   80.3319    9.8744 C.ar    1  UNL1        0.1033
     11 N          63.1069   78.8780    9.5110 N.ar    1  UNL1       -0.2125
     12 C          62.7840   77.8564   10.5607 C.ar    1  UNL1        0.2137
     13 N          62.7189   76.4025   10.1974 N.pl3   1  UNL1       -0.3274
     14 N          62.5261   78.2886   11.9738 N.ar    1  UNL1       -0.2125
     15 C          62.5912   79.7425   12.3371 C.ar    1  UNL1        0.1033
     16 H          62.8881   76.1188    9.2700 H       1  UNL1        0.1452
     17 H          62.5069   75.7320   10.8864 H       1  UNL1        0.1452
     18 C          63.8993   90.1263   14.1410 C.ar    1  UNL1        0.2628
     19 N          64.1833   88.6543   14.0909 N.ar    1  UNL1       -0.1907
     20 C          63.2395   88.0335   13.1040 C.ar    1  UNL1        0.1837
     21 N          62.3723   89.1219   12.5442 N.ar    1  UNL1       -0.0599
     22 O          62.7800   90.4153   13.1851 O.2     1  UNL1       -0.3326
     23 N          66.3066   92.6319   15.8709 N.ar    1  UNL1       -0.2468
     24 C          66.0037   91.6443   14.7834 C.ar    1  UNL1        0.1015
     25 C          64.6099   91.1327   14.9968 C.ar    1  UNL1        0.0956
     26 C          64.0514   91.8042   16.2163 C.ar    1  UNL1        0.1264
     27 N          65.1000   92.7307   16.7565 N.ar    1  UNL1       -0.1674
     28 C          67.5907   93.3880   16.0427 C.3     1  UNL1        0.1541
     29 C          69.6241   93.9913   16.0072 C.3     1  UNL1        0.0314
     30 C          68.7899   93.0269   15.2172 C.3     1  UNL1        0.1110
     31 C          67.9556   92.0625   14.4272 C.3     1  UNL1        0.0314
     32 O          69.9891   92.6658   14.3917 O.3     1  UNL1       -0.3848
     33 H          70.7562   93.1760   14.6954 H       1  UNL1        0.2103
     34 C          63.8870   86.2298   14.0134 C.3     1  UNL1        0.0106
     35 C          63.8683   86.0299   15.4999 C.3     1  UNL1        0.0008
     36 C          65.1398   85.8235   14.7314 C.3     1  UNL1        0.0008
@<TRIPOS>BOND
     1    29    30    1
     2    30    31    1
     3    30    32    1
     4    30    28    1
     5    28    23    1
     6    23    24   ar
     7    24    25   ar
     8    25    18    1
     9    18    19   ar
    10    19    20   ar
    11    20     1    1
    12     1     2    1
    13     1     3    1
    14     3     4   ar
    15     4     5   ar
    16     5     6   ar
    17     6     9    1
    18     9    10   ar
    19    10    11   ar
    20    11    12   ar
    21    12    13    1
    22    12    14   ar
    23    14    15   ar
    24     6     7   ar
    25     7     8   ar
    26     1    34    1
    27    34    35    1
    28    35    36    1
    29    20    21   ar
    30    21    22   ar
    31    25    26   ar
    32    26    27   ar
    33    27    23   ar
    34    22    18   ar
    35     8     3   ar
    36    36    34    1
    37    15     9   ar
    38    32    33    1
    39    13    16    1
    40    13    17    1
