@<TRIPOS>MOLECULE
*****
 26 29 0 0 0
SMALL
GASTEIGER

@<TRIPOS>ATOM
      1 O          60.6668   89.3620   12.0785 O.2     1  UNL1       -0.2696
      2 C          62.0927   89.2844   11.6199 C.2     1  UNL1        0.2541
      3 N          62.4178   88.7021   10.2762 N.am    1  UNL1       -0.2802
      4 H          63.3537   88.6512    9.9751 H       1  UNL1        0.1552
      5 C          63.1938   89.7891   12.5047 C.ar    1  UNL1        0.1102
      6 C          63.5633   89.2420   13.8516 C.ar    1  UNL1        0.1281
      7 N          64.7165   90.0443   14.3773 N.ar    1  UNL1       -0.1619
      8 N          65.0596   91.0874   13.3554 N.ar    1  UNL1       -0.2105
      9 C          66.1075   92.1604   13.3292 C.ar    1  UNL1        0.1037
     10 C          66.2142   93.0756   12.1456 C.ar    1  UNL1        0.0414
     11 C          65.2731   92.9179   10.9883 C.ar    1  UNL1        0.1022
     12 N          64.2252   91.8449   11.0145 N.ar    1  UNL1       -0.2248
     13 C          64.1185   90.9297   12.1981 C.ar    1  UNL1        0.1697
     14 C          61.3167   88.1974    9.3913 C.ar    1  UNL1        0.0536
     15 C          60.4300   89.1683    8.6695 C.ar    1  UNL1        0.0353
     16 C          59.3290   88.6636    7.7846 C.ar    1  UNL1        0.1002
     17 N          59.1148   87.1879    7.6216 N.ar    1  UNL1       -0.2422
     18 C          60.0015   86.2170    8.3434 C.ar    1  UNL1        0.1001
     19 C          61.1025   86.7218    9.2283 C.ar    1  UNL1        0.0327
     20 C          61.9893   85.7509    9.9501 C.ar    1  UNL1        0.0035
     21 C          62.9835   84.9302    9.1834 C.ar    1  UNL1        0.0001
     22 C          63.8702   83.9593    9.9052 C.ar    1  UNL1        0.0009
     23 C          63.7627   83.8091   11.3938 C.ar    1  UNL1        0.0114
     24 C          62.7685   84.6297   12.1605 C.ar    1  UNL1        0.0577
     25 CL         62.6610   84.4795   13.6491 Cl      1  UNL1       -0.0822
     26 C          61.8818   85.6006   11.4387 C.ar    1  UNL1        0.0115
@<TRIPOS>BOND
     1     1     2    2
     2     2     3   am
     3     3    14    1
     4    14    15   ar
     5    15    16   ar
     6    16    17   ar
     7    17    18   ar
     8    18    19   ar
     9    19    20    1
    10    20    21   ar
    11    21    22   ar
    12    22    23   ar
    13    23    24   ar
    14    24    25    1
    15    24    26   ar
    16     2     5    1
    17     5     6   ar
    18     6     7   ar
    19     7     8   ar
    20     8     9   ar
    21     9    10   ar
    22    10    11   ar
    23    11    12   ar
    24    12    13   ar
    25    19    14   ar
    26    26    20   ar
    27    13     5   ar
    28    13     8   ar
    29     3     4    1
@<TRIPOS>MOLECULE
*****
 26 29 0 0 0
SMALL
GASTEIGER

@<TRIPOS>ATOM
      1 O          64.2917   87.2163   14.3834 O.2     1  UNL1       -0.2696
      2 C          63.4945   86.2943   13.5092 C.2     1  UNL1        0.2541
      3 N          62.8091   86.8268   12.2858 N.am    1  UNL1       -0.2802
      4 H          62.2858   86.2217   11.7120 H       1  UNL1        0.1552
      5 C          63.3826   84.8398   13.8584 C.ar    1  UNL1        0.1102
      6 C          63.2967   84.2696   15.2431 C.ar    1  UNL1        0.1281
      7 N          63.1980   82.7775   15.1246 N.ar    1  UNL1       -0.1619
      8 N          63.2229   82.4256   13.6667 N.ar    1  UNL1       -0.2105
      9 C          63.1564   81.1093   12.9507 C.ar    1  UNL1        0.1037
     10 C          63.2041   81.0675   11.4520 C.ar    1  UNL1        0.0414
     11 C          63.3182   82.3421   10.6695 C.ar    1  UNL1        0.1022
     12 N          63.3847   83.6584   11.3855 N.ar    1  UNL1       -0.2248
     13 C          63.3370   83.7002   12.8841 C.ar    1  UNL1        0.1697
     14 C          62.9210   88.2813   11.9366 C.ar    1  UNL1        0.0536
     15 C          63.5845   89.2322   12.8882 C.ar    1  UNL1        0.0353
     16 C          63.6964   90.6867   12.5390 C.ar    1  UNL1        0.1002
     17 N          63.1448   91.1902   11.2382 N.ar    1  UNL1       -0.2422
     18 C          62.4813   90.2393   10.2866 C.ar    1  UNL1        0.1001
     19 C          62.3694   88.7848   10.6358 C.ar    1  UNL1        0.0327
     20 C          61.7059   87.8339    9.6842 C.ar    1  UNL1        0.0035
     21 C          60.2396   87.9628    9.3956 C.ar    1  UNL1        0.0001
     22 C          59.5761   87.0119    8.4440 C.ar    1  UNL1        0.0009
     23 C          60.3789   85.9322    7.7809 C.ar    1  UNL1        0.0114
     24 C          61.8453   85.8034    8.0694 C.ar    1  UNL1        0.0577
     25 CL         62.6481   84.7236    7.4063 Cl      1  UNL1       -0.0822
     26 C          62.5087   86.7542    9.0211 C.ar    1  UNL1        0.0115
@<TRIPOS>BOND
     1     1     2    2
     2     2     3   am
     3     3    14    1
     4    14    15   ar
     5    15    16   ar
     6    16    17   ar
     7    17    18   ar
     8    18    19   ar
     9    19    20    1
    10    20    21   ar
    11    21    22   ar
    12    22    23   ar
    13    23    24   ar
    14    24    25    1
    15    24    26   ar
    16     2     5    1
    17     5     6   ar
    18     6     7   ar
    19     7     8   ar
    20     8     9   ar
    21     9    10   ar
    22    10    11   ar
    23    11    12   ar
    24    12    13   ar
    25    19    14   ar
    26    26    20   ar
    27    13     5   ar
    28    13     8   ar
    29     3     4    1
@<TRIPOS>MOLECULE
*****
 26 29 0 0 0
SMALL
GASTEIGER

@<TRIPOS>ATOM
      1 O          62.9090   85.0838    8.3339 O.2     1  UNL1       -0.2696
      2 C          62.6019   85.0927    9.8021 C.2     1  UNL1        0.2541
      3 N          61.5561   86.0217   10.3438 N.am    1  UNL1       -0.2802
      4 H          61.3545   86.0276   11.3075 H       1  UNL1        0.1552
      5 C          63.3405   84.1729   10.7285 C.ar    1  UNL1        0.1102
      6 C          64.3723   83.1604   10.3281 C.ar    1  UNL1        0.1281
      7 N          64.8464   82.4658   11.5702 N.ar    1  UNL1       -0.1619
      8 N          64.1077   83.0490   12.7382 N.ar    1  UNL1       -0.2105
      9 C          64.1623   82.7556   14.2082 C.ar    1  UNL1        0.1037
     10 C          63.2862   83.5173   15.1580 C.ar    1  UNL1        0.0414
     11 C          62.3555   84.5724   14.6378 C.ar    1  UNL1        0.1022
     12 N          62.3009   84.8657   13.1678 N.ar    1  UNL1       -0.2248
     13 C          63.1770   84.1040   12.2180 C.ar    1  UNL1        0.1697
     14 C          60.8175   86.9416    9.4174 C.ar    1  UNL1        0.0536
     15 C          59.8720   86.3787    8.3980 C.ar    1  UNL1        0.0353
     16 C          59.1334   87.2986    7.4716 C.ar    1  UNL1        0.1002
     17 N          59.3404   88.7813    7.5646 N.ar    1  UNL1       -0.2422
     18 C          60.2859   89.3442    8.5839 C.ar    1  UNL1        0.1001
     19 C          61.0245   88.4243    9.5104 C.ar    1  UNL1        0.0327
     20 C          61.9701   88.9871   10.5298 C.ar    1  UNL1        0.0035
     21 C          62.3952   90.4232   10.4461 C.ar    1  UNL1        0.0001
     22 C          63.3408   90.9860   11.4654 C.ar    1  UNL1        0.0009
     23 C          63.8611   90.1128   12.5685 C.ar    1  UNL1        0.0114
     24 C          63.4360   88.6768   12.6522 C.ar    1  UNL1        0.0577
     25 CL         63.9564   87.8036   13.7553 Cl      1  UNL1       -0.0822
     26 C          62.4904   88.1140   11.6328 C.ar    1  UNL1        0.0115
@<TRIPOS>BOND
     1     1     2    2
     2     2     3   am
     3     3    14    1
     4    14    15   ar
     5    15    16   ar
     6    16    17   ar
     7    17    18   ar
     8    18    19   ar
     9    19    20    1
    10    20    21   ar
    11    21    22   ar
    12    22    23   ar
    13    23    24   ar
    14    24    25    1
    15    24    26   ar
    16     2     5    1
    17     5     6   ar
    18     6     7   ar
    19     7     8   ar
    20     8     9   ar
    21     9    10   ar
    22    10    11   ar
    23    11    12   ar
    24    12    13   ar
    25    19    14   ar
    26    26    20   ar
    27    13     5   ar
    28    13     8   ar
    29     3     4    1
@<TRIPOS>MOLECULE
*****
 26 29 0 0 0
SMALL
GASTEIGER

@<TRIPOS>ATOM
      1 O          61.8273   90.4665   11.2803 O.2     1  UNL1       -0.2696
      2 C          62.4097   89.0983   11.4763 C.2     1  UNL1        0.2541
      3 N          63.5848   88.9070   12.3888 N.am    1  UNL1       -0.2802
      4 H          63.9671   88.0090   12.5175 H       1  UNL1        0.1552
      5 C          61.8171   87.9212   10.7599 C.ar    1  UNL1        0.1102
      6 C          62.0278   86.4781   11.1106 C.ar    1  UNL1        0.1281
      7 N          61.2507   85.6456   10.1345 N.ar    1  UNL1       -0.1619
      8 N          60.5596   86.5741    9.1804 N.ar    1  UNL1       -0.2105
      9 C          59.6568   86.3207    8.0097 C.ar    1  UNL1        0.1037
     10 C          59.1040   87.4737    7.2255 C.ar    1  UNL1        0.0414
     11 C          59.4541   88.8801    7.6121 C.ar    1  UNL1        0.1022
     12 N          60.3569   89.1336    8.7828 N.ar    1  UNL1       -0.2248
     13 C          60.9096   87.9805    9.5670 C.ar    1  UNL1        0.1697
     14 C          64.1774   90.0841   13.1053 C.ar    1  UNL1        0.0536
     15 C          64.5647   91.3127   12.3367 C.ar    1  UNL1        0.0353
     16 C          65.1573   92.4898   13.0531 C.ar    1  UNL1        0.1002
     17 N          65.3626   92.4383   14.5381 N.ar    1  UNL1       -0.2422
     18 C          64.9753   91.2097   15.3066 C.ar    1  UNL1        0.1001
     19 C          64.3827   90.0326   14.5902 C.ar    1  UNL1        0.0327
     20 C          63.9954   88.8041   15.3588 C.ar    1  UNL1        0.0035
     21 C          63.1796   88.9291   16.6113 C.ar    1  UNL1        0.0001
     22 C          62.7923   87.7006   17.3798 C.ar    1  UNL1        0.0009
     23 C          63.2209   86.3470   16.8959 C.ar    1  UNL1        0.0114
     24 C          64.0367   86.2220   15.6434 C.ar    1  UNL1        0.0577
     25 CL         64.4652   84.8684   15.1595 Cl      1  UNL1       -0.0822
     26 C          64.4240   87.4505   14.8748 C.ar    1  UNL1        0.0115
@<TRIPOS>BOND
     1     1     2    2
     2     2     3   am
     3     3    14    1
     4    14    15   ar
     5    15    16   ar
     6    16    17   ar
     7    17    18   ar
     8    18    19   ar
     9    19    20    1
    10    20    21   ar
    11    21    22   ar
    12    22    23   ar
    13    23    24   ar
    14    24    25    1
    15    24    26   ar
    16     2     5    1
    17     5     6   ar
    18     6     7   ar
    19     7     8   ar
    20     8     9   ar
    21     9    10   ar
    22    10    11   ar
    23    11    12   ar
    24    12    13   ar
    25    19    14   ar
    26    26    20   ar
    27    13     5   ar
    28    13     8   ar
    29     3     4    1
@<TRIPOS>MOLECULE
*****
 26 29 0 0 0
SMALL
GASTEIGER

@<TRIPOS>ATOM
      1 O          63.4255   84.2757   10.0198 O.2     1  UNL1       -0.2696
      2 C          62.4333   85.0947   10.7909 C.2     1  UNL1        0.2541
      3 N          62.0290   84.6766   12.1736 N.am    1  UNL1       -0.2802
      4 H          61.3777   85.2142   12.6798 H       1  UNL1        0.1552
      5 C          61.8453   86.3318   10.1794 C.ar    1  UNL1        0.1102
      6 C          60.9470   86.3806    8.9791 C.ar    1  UNL1        0.1281
      7 N          60.5989   87.8162    8.7187 N.ar    1  UNL1       -0.1619
      8 N          61.2821   88.6547    9.7581 N.ar    1  UNL1       -0.2105
      9 C          61.3022   90.1350    9.9991 C.ar    1  UNL1        0.1037
     10 C          62.0927   90.6979   11.1429 C.ar    1  UNL1        0.0414
     11 C          62.8630   89.7805   12.0456 C.ar    1  UNL1        0.1022
     12 N          62.8428   88.3002   11.8046 N.ar    1  UNL1       -0.2248
     13 C          62.0524   87.7373   10.6608 C.ar    1  UNL1        0.1697
     14 C          62.6170   83.4396   12.7852 C.ar    1  UNL1        0.0536
     15 C          62.4624   82.1161   12.0963 C.ar    1  UNL1        0.0353
     16 C          63.0503   80.8791   12.7078 C.ar    1  UNL1        0.1002
     17 N          63.7929   80.9655   14.0082 N.ar    1  UNL1       -0.2422
     18 C          63.9475   82.2890   14.6971 C.ar    1  UNL1        0.1001
     19 C          63.3595   83.5260   14.0856 C.ar    1  UNL1        0.0327
     20 C          63.5141   84.8495   14.7745 C.ar    1  UNL1        0.0035
     21 C          64.2445   85.9687   14.0934 C.ar    1  UNL1        0.0001
     22 C          64.3991   87.2921   14.7823 C.ar    1  UNL1        0.0009
     23 C          63.8233   87.4964   16.1522 C.ar    1  UNL1        0.0114
     24 C          63.0928   86.3772   16.8333 C.ar    1  UNL1        0.0577
     25 CL         62.5170   86.5814   18.2032 Cl      1  UNL1       -0.0822
     26 C          62.9382   85.0537   16.1444 C.ar    1  UNL1        0.0115
@<TRIPOS>BOND
     1     1     2    2
     2     2     3   am
     3     3    14    1
     4    14    15   ar
     5    15    16   ar
     6    16    17   ar
     7    17    18   ar
     8    18    19   ar
     9    19    20    1
    10    20    21   ar
    11    21    22   ar
    12    22    23   ar
    13    23    24   ar
    14    24    25    1
    15    24    26   ar
    16     2     5    1
    17     5     6   ar
    18     6     7   ar
    19     7     8   ar
    20     8     9   ar
    21     9    10   ar
    22    10    11   ar
    23    11    12   ar
    24    12    13   ar
    25    19    14   ar
    26    26    20   ar
    27    13     5   ar
    28    13     8   ar
    29     3     4    1
@<TRIPOS>MOLECULE
*****
 26 29 0 0 0
SMALL
GASTEIGER

@<TRIPOS>ATOM
      1 O          60.5414   90.6627   10.5617 O.2     1  UNL1       -0.2696
      2 C          61.9049   90.0379   10.5440 C.2     1  UNL1        0.2541
      3 N          62.1466   88.7875    9.7513 N.am    1  UNL1       -0.2802
      4 H          63.0416   88.3774    9.7396 H       1  UNL1        0.1552
      5 C          63.0267   90.6633   11.3189 C.ar    1  UNL1        0.1102
      6 C          64.0760   91.5813   10.7657 C.ar    1  UNL1        0.1281
      7 N          64.9939   91.9658   11.8880 N.ar    1  UNL1       -0.1619
      8 N          64.5118   91.2854   13.1349 N.ar    1  UNL1       -0.2105
      9 C          65.0229   91.2948   14.5451 C.ar    1  UNL1        0.1037
     10 C          64.3182   90.4993   15.6035 C.ar    1  UNL1        0.0414
     11 C          63.1024   89.6943   15.2518 C.ar    1  UNL1        0.1022
     12 N          62.5913   89.6848   13.8416 N.ar    1  UNL1       -0.2248
     13 C          63.2960   90.4803   12.7832 C.ar    1  UNL1        0.1697
     14 C          61.0249   88.1622    8.9763 C.ar    1  UNL1        0.0536
     15 C          60.0578   89.0286    8.2253 C.ar    1  UNL1        0.0353
     16 C          58.9360   88.4032    7.4504 C.ar    1  UNL1        0.1002
     17 N          58.7814   86.9114    7.4265 N.ar    1  UNL1       -0.2422
     18 C          59.7484   86.0450    8.1775 C.ar    1  UNL1        0.1001
     19 C          60.8702   86.6704    8.9525 C.ar    1  UNL1        0.0327
     20 C          61.8373   85.8039    9.7035 C.ar    1  UNL1        0.0035
     21 C          62.8885   85.0345    8.9600 C.ar    1  UNL1        0.0001
     22 C          63.8556   84.1680    9.7110 C.ar    1  UNL1        0.0009
     23 C          63.7715   84.0711   11.2056 C.ar    1  UNL1        0.0114
     24 C          62.7203   84.8406   11.9490 C.ar    1  UNL1        0.0577
     25 CL         62.6361   84.7437   13.4435 Cl      1  UNL1       -0.0822
     26 C          61.7532   85.7070   11.1980 C.ar    1  UNL1        0.0115
@<TRIPOS>BOND
     1     1     2    2
     2     2     3   am
     3     3    14    1
     4    14    15   ar
     5    15    16   ar
     6    16    17   ar
     7    17    18   ar
     8    18    19   ar
     9    19    20    1
    10    20    21   ar
    11    21    22   ar
    12    22    23   ar
    13    23    24   ar
    14    24    25    1
    15    24    26   ar
    16     2     5    1
    17     5     6   ar
    18     6     7   ar
    19     7     8   ar
    20     8     9   ar
    21     9    10   ar
    22    10    11   ar
    23    11    12   ar
    24    12    13   ar
    25    19    14   ar
    26    26    20   ar
    27    13     5   ar
    28    13     8   ar
    29     3     4    1
@<TRIPOS>MOLECULE
*****
 26 29 0 0 0
SMALL
GASTEIGER

@<TRIPOS>ATOM
      1 O          63.3179   90.3240   16.5580 O.2     1  UNL1       -0.2696
      2 C          63.6805   89.0779   15.8061 C.2     1  UNL1        0.2541
      3 N          64.4832   89.1713   14.5423 N.am    1  UNL1       -0.2802
      4 H          64.7212   88.3534   14.0488 H       1  UNL1        0.1552
      5 C          63.2406   87.7383   16.3179 C.ar    1  UNL1        0.1102
      6 C          62.5276   87.4796   17.6120 C.ar    1  UNL1        0.1281
      7 N          62.2829   86.0036   17.7193 N.ar    1  UNL1       -0.1619
      8 N          62.8446   85.3500   16.4915 N.ar    1  UNL1       -0.2105
      9 C          62.8936   83.9173   16.0504 C.ar    1  UNL1        0.1037
     10 C          63.5345   83.5566   14.7431 C.ar    1  UNL1        0.0414
     11 C          64.1265   84.6287   13.8769 C.ar    1  UNL1        0.1022
     12 N          64.0775   86.0615   14.3181 N.ar    1  UNL1       -0.2248
     13 C          63.4366   86.4222   15.6254 C.ar    1  UNL1        0.1697
     14 C          64.9231   90.5109   14.0305 C.ar    1  UNL1        0.0536
     15 C          65.9306   91.3135   14.7991 C.ar    1  UNL1        0.0353
     16 C          66.3705   92.6531   14.2873 C.ar    1  UNL1        0.1002
     17 N          65.8028   93.1901   13.0070 N.ar    1  UNL1       -0.2422
     18 C          64.7953   92.3875   12.2384 C.ar    1  UNL1        0.1001
     19 C          64.3554   91.0479   12.7502 C.ar    1  UNL1        0.0327
     20 C          63.3478   90.2453   11.9816 C.ar    1  UNL1        0.0035
     21 C          62.3593   90.9376   11.0909 C.ar    1  UNL1        0.0001
     22 C          61.3518   90.1351   10.3223 C.ar    1  UNL1        0.0009
     23 C          61.3327   88.6402   10.4445 C.ar    1  UNL1        0.0114
     24 C          62.3213   87.9478   11.3352 C.ar    1  UNL1        0.0577
     25 CL         62.3023   86.4529   11.4574 Cl      1  UNL1       -0.0822
     26 C          63.3288   88.7504   12.1038 C.ar    1  UNL1        0.0115
@<TRIPOS>BOND
     1     1     2    2
     2     2     3   am
     3     3    14    1
     4    14    15   ar
     5    15    16   ar
     6    16    17   ar
     7    17    18   ar
     8    18    19   ar
     9    19    20    1
    10    20    21   ar
    11    21    22   ar
    12    22    23   ar
    13    23    24   ar
    14    24    25    1
    15    24    26   ar
    16     2     5    1
    17     5     6   ar
    18     6     7   ar
    19     7     8   ar
    20     8     9   ar
    21     9    10   ar
    22    10    11   ar
    23    11    12   ar
    24    12    13   ar
    25    19    14   ar
    26    26    20   ar
    27    13     5   ar
    28    13     8   ar
    29     3     4    1
@<TRIPOS>MOLECULE
*****
 26 29 0 0 0
SMALL
GASTEIGER

@<TRIPOS>ATOM
      1 O          63.2653   84.8038   10.0699 O.2     1  UNL1       -0.2696
      2 C          62.4601   85.7272   10.9353 C.2     1  UNL1        0.2541
      3 N          62.1548   85.3492   12.3545 N.am    1  UNL1       -0.2802
      4 H          61.6263   85.9553   12.9225 H       1  UNL1        0.1552
      5 C          61.9603   87.0287   10.3817 C.ar    1  UNL1        0.1102
      6 C          62.4135   88.3964   10.7988 C.ar    1  UNL1        0.1281
      7 N          61.6528   89.4038    9.9886 N.ar    1  UNL1       -0.1619
      8 N          60.7296   88.6588    9.0707 N.ar    1  UNL1       -0.2105
      9 C          59.7404   89.1273    8.0451 C.ar    1  UNL1        0.1037
     10 C          58.9413   88.1280    7.2624 C.ar    1  UNL1        0.0414
     11 C          59.1314   86.6600    7.5053 C.ar    1  UNL1        0.1022
     12 N          60.1206   86.1914    8.5309 N.ar    1  UNL1       -0.2248
     13 C          60.9196   87.1908    9.3136 C.ar    1  UNL1        0.1697
     14 C          62.6546   84.0478   12.9081 C.ar    1  UNL1        0.0536
     15 C          62.6028   82.8061   12.0681 C.ar    1  UNL1        0.0353
     16 C          63.1026   81.5047   12.6218 C.ar    1  UNL1        0.1002
     17 N          63.6541   81.4450   14.0154 N.ar    1  UNL1       -0.2422
     18 C          63.7059   82.6867   14.8554 C.ar    1  UNL1        0.1001
     19 C          63.2061   83.9881   14.3017 C.ar    1  UNL1        0.0327
     20 C          63.2578   85.2298   15.1417 C.ar    1  UNL1        0.0035
     21 C          62.6550   85.2317   16.5153 C.ar    1  UNL1        0.0001
     22 C          62.7068   86.4734   17.3552 C.ar    1  UNL1        0.0009
     23 C          63.3613   87.7131   16.8217 C.ar    1  UNL1        0.0114
     24 C          63.9641   87.7112   15.4482 C.ar    1  UNL1        0.0577
     25 CL         64.6186   88.9509   14.9146 Cl      1  UNL1       -0.0822
     26 C          63.9124   86.4695   14.6082 C.ar    1  UNL1        0.0115
@<TRIPOS>BOND
     1     1     2    2
     2     2     3   am
     3     3    14    1
     4    14    15   ar
     5    15    16   ar
     6    16    17   ar
     7    17    18   ar
     8    18    19   ar
     9    19    20    1
    10    20    21   ar
    11    21    22   ar
    12    22    23   ar
    13    23    24   ar
    14    24    25    1
    15    24    26   ar
    16     2     5    1
    17     5     6   ar
    18     6     7   ar
    19     7     8   ar
    20     8     9   ar
    21     9    10   ar
    22    10    11   ar
    23    11    12   ar
    24    12    13   ar
    25    19    14   ar
    26    26    20   ar
    27    13     5   ar
    28    13     8   ar
    29     3     4    1
@<TRIPOS>MOLECULE
*****
 26 29 0 0 0
SMALL
GASTEIGER

@<TRIPOS>ATOM
      1 O          62.7400   85.2668    9.7620 O.2     1  UNL1       -0.2696
      2 C          62.3221   85.6841   11.1408 C.2     1  UNL1        0.2541
      3 N          61.3228   86.7886   11.3195 N.am    1  UNL1       -0.2802
      4 H          61.0485   87.0625   12.2244 H       1  UNL1        0.1552
      5 C          62.9033   84.9972   12.3409 C.ar    1  UNL1        0.1102
      6 C          63.5568   85.6700   13.5115 C.ar    1  UNL1        0.1281
      7 N          63.9905   84.6054   14.4751 N.ar    1  UNL1       -0.1619
      8 N          63.6051   83.2747   13.9001 N.ar    1  UNL1       -0.2105
      9 C          63.7791   81.8738   14.4071 C.ar    1  UNL1        0.1037
     10 C          63.2813   80.7150   13.5951 C.ar    1  UNL1        0.0414
     11 C          62.6094   80.9572   12.2760 C.ar    1  UNL1        0.1022
     12 N          62.4353   82.3581   11.7690 N.ar    1  UNL1       -0.2248
     13 C          62.9332   83.5168   12.5810 C.ar    1  UNL1        0.1697
     14 C          60.7416   87.4755   10.1194 C.ar    1  UNL1        0.0536
     15 C          59.8021   86.7359    9.2136 C.ar    1  UNL1        0.0353
     16 C          59.2209   87.4229    8.0135 C.ar    1  UNL1        0.1002
     17 N          59.5791   88.8494    7.7192 N.ar    1  UNL1       -0.2422
     18 C          60.5185   89.5890    8.6250 C.ar    1  UNL1        0.1001
     19 C          61.0998   88.9021    9.8251 C.ar    1  UNL1        0.0327
     20 C          62.0392   89.6417   10.7309 C.ar    1  UNL1        0.0035
     21 C          62.0587   89.3388   12.1999 C.ar    1  UNL1        0.0001
     22 C          62.9981   90.0784   13.1057 C.ar    1  UNL1        0.0009
     23 C          63.9180   91.1209   12.5425 C.ar    1  UNL1        0.0114
     24 C          63.8984   91.4237   11.0735 C.ar    1  UNL1        0.0577
     25 CL         64.8183   92.4662   10.5104 Cl      1  UNL1       -0.0822
     26 C          62.9590   90.6841   10.1678 C.ar    1  UNL1        0.0115
@<TRIPOS>BOND
     1     1     2    2
     2     2     3   am
     3     3    14    1
     4    14    15   ar
     5    15    16   ar
     6    16    17   ar
     7    17    18   ar
     8    18    19   ar
     9    19    20    1
    10    20    21   ar
    11    21    22   ar
    12    22    23   ar
    13    23    24   ar
    14    24    25    1
    15    24    26   ar
    16     2     5    1
    17     5     6   ar
    18     6     7   ar
    19     7     8   ar
    20     8     9   ar
    21     9    10   ar
    22    10    11   ar
    23    11    12   ar
    24    12    13   ar
    25    19    14   ar
    26    26    20   ar
    27    13     5   ar
    28    13     8   ar
    29     3     4    1
