@<TRIPOS>MOLECULE
*****
 39 44 0 0 0
SMALL
GASTEIGER

@<TRIPOS>ATOM
      1 N          63.4349   87.8152   16.3033 N.3     1  UNL1       -0.2672
      2 C          64.1808   87.7866   15.0021 C.3     1  UNL1        0.0898
      3 C          64.2781   86.5095   14.2214 C.3     1  UNL1        0.0899
      4 N          63.6297   85.2610   14.7419 N.3     1  UNL1       -0.2665
      5 C          62.8839   85.2896   16.0430 C.3     1  UNL1        0.0899
      6 C          62.7865   86.5667   16.8237 C.3     1  UNL1        0.0898
      7 C          63.3376   89.0923   17.0840 C.3     1  UNL1        0.1201
      8 C          63.1070   90.3916   16.3707 C.3     1  UNL1        0.2226
      9 O          63.7830   90.6569   15.0582 O.3     1  UNL1       -0.4739
     10 C          66.8003   93.7247    9.6977 C.3     1  UNL1        0.0521
     11 C          66.3388   93.1914   11.0216 C.ar    1  UNL1        0.0593
     12 C          65.1675   92.2566   11.0865 C.ar    1  UNL1        0.0148
     13 C          64.7060   91.7234   12.4104 C.ar    1  UNL1        0.0057
     14 C          65.4158   92.1250   13.6694 C.ar    1  UNL1        0.0516
     15 C          64.9543   91.5917   14.9932 C.ar    1  UNL1        0.1400
     16 C          65.6640   91.9933   16.2522 C.ar    1  UNL1        0.0370
     17 C          66.8353   92.9281   16.1873 C.ar    1  UNL1        0.0047
     18 C          67.2968   93.4614   14.8634 C.ar    1  UNL1        0.0193
     19 C          66.5870   93.0598   13.6044 C.ar    1  UNL1        0.0838
     20 N          67.0485   93.5930   12.2805 N.ar    1  UNL1       -0.2496
     21 C          63.7271   83.9838   13.9612 C.3     1  UNL1        0.0993
     22 C          63.6016   84.0070   12.4666 C.ar    1  UNL1       -0.0047
     23 C          64.4937   83.1428   11.6256 C.ar    1  UNL1        0.0003
     24 C          64.3682   83.1660   10.1311 C.ar    1  UNL1        0.0379
     25 C          63.3508   84.0535    9.4775 C.ar    1  UNL1        0.1528
     26 C          62.4587   84.9177   10.3185 C.ar    1  UNL1        0.0881
     27 C          62.5842   84.8945   11.8130 C.ar    1  UNL1        0.0151
     28 N          61.4413   85.8052    9.6650 N.am    1  UNL1       -0.2486
     29 C          61.3158   85.8284    8.1704 C.2     1  UNL1        0.2742
     30 O          60.2984   86.7159    7.5169 O.2     1  UNL1       -0.2705
     31 C          62.2079   84.9642    7.3294 C.3     1  UNL1        0.2900
     32 O          63.2254   84.0767    7.9829 O.3     1  UNL1       -0.4643
     33 C          60.5492   86.6695   10.5059 C.3     1  UNL1        0.1249
     34 C          60.8340   88.1362   10.6383 C.ar    1  UNL1       -0.0020
     35 C          62.1385   88.6939   10.1513 C.ar    1  UNL1       -0.0026
     36 C          62.4232   90.1607   10.2837 C.ar    1  UNL1       -0.0003
     37 C          61.4035   91.0698   10.9031 C.ar    1  UNL1       -0.0000
     38 C          60.0989   90.5121   11.3902 C.ar    1  UNL1       -0.0003
     39 C          59.8142   89.0453   11.2578 C.ar    1  UNL1       -0.0026
@<TRIPOS>BOND
     1    10    11    1
     2    11    12   ar
     3    12    13   ar
     4    13    14   ar
     5    14    15   ar
     6    15     9    1
     7     9     8    1
     8     8     7    1
     9     7     1    1
    10     1     2    1
    11     2     3    1
    12     3     4    1
    13     4    21    1
    14    21    22    1
    15    22    23   ar
    16    23    24   ar
    17    24    25   ar
    18    25    26   ar
    19    26    27   ar
    20    26    28    1
    21    28    33    1
    22    33    34    1
    23    34    35   ar
    24    35    36   ar
    25    36    37   ar
    26    37    38   ar
    27    38    39   ar
    28    28    29   am
    29    29    30    2
    30    29    31    1
    31    31    32    1
    32     4     5    1
    33     5     6    1
    34    15    16   ar
    35    16    17   ar
    36    17    18   ar
    37    18    19   ar
    38    19    20   ar
    39    20    11   ar
    40    19    14   ar
    41     6     1    1
    42    27    22   ar
    43    39    34   ar
    44    32    25    1
@<TRIPOS>MOLECULE
*****
 39 44 0 0 0
SMALL
GASTEIGER

@<TRIPOS>ATOM
      1 N          62.7738   84.7791   10.1339 N.3     1  UNL1       -0.2672
      2 C          62.7809   85.8197    9.0535 C.3     1  UNL1        0.0898
      3 C          62.5963   87.2664    9.4045 C.3     1  UNL1        0.0899
      4 N          62.4047   87.6723   10.8358 N.3     1  UNL1       -0.2665
      5 C          62.3976   86.6317   11.9160 C.3     1  UNL1        0.0899
      6 C          62.5821   85.1851   11.5651 C.3     1  UNL1        0.0898
      7 C          62.9583   83.3324    9.7829 C.3     1  UNL1        0.1201
      8 C          64.3066   82.6914    9.9287 C.3     1  UNL1        0.2226
      9 O          64.7364   82.1424   11.2569 O.3     1  UNL1       -0.4739
     10 C          63.4523   85.9683   16.8214 C.3     1  UNL1        0.0521
     11 C          63.5222   84.9685   15.7054 C.ar    1  UNL1        0.0593
     12 C          64.5266   85.1418   14.6050 C.ar    1  UNL1        0.0148
     13 C          64.5966   84.1420   13.4889 C.ar    1  UNL1        0.0057
     14 C          63.6620   82.9689   13.4733 C.ar    1  UNL1        0.0516
     15 C          63.7319   81.9691   12.3573 C.ar    1  UNL1        0.1400
     16 C          62.7973   80.7959   12.3417 C.ar    1  UNL1        0.0370
     17 C          61.7928   80.6226   13.4422 C.ar    1  UNL1        0.0047
     18 C          61.7229   81.6224   14.5582 C.ar    1  UNL1        0.0193
     19 C          62.6575   82.7956   14.5737 C.ar    1  UNL1        0.0838
     20 N          62.5876   83.7954   15.6898 N.ar    1  UNL1       -0.2496
     21 C          62.2202   89.1190   11.1868 C.3     1  UNL1        0.0993
     22 C          63.0819   89.7512   12.2393 C.ar    1  UNL1       -0.0047
     23 C          63.2069   89.1113   13.5902 C.ar    1  UNL1        0.0003
     24 C          64.0686   89.7436   14.6426 C.ar    1  UNL1        0.0379
     25 C          64.8053   91.0157   14.3443 C.ar    1  UNL1        0.1528
     26 C          64.6802   91.6556   12.9934 C.ar    1  UNL1        0.0881
     27 C          63.8185   91.0233   11.9409 C.ar    1  UNL1        0.0151
     28 N          65.4169   92.9277   12.6950 N.am    1  UNL1       -0.2486
     29 C          66.2786   93.5599   13.7475 C.2     1  UNL1        0.2742
     30 O          67.0152   94.8321   13.4491 O.2     1  UNL1       -0.2705
     31 C          66.4036   92.9200   15.0984 C.3     1  UNL1        0.2900
     32 O          65.6670   91.6479   15.3968 O.3     1  UNL1       -0.4643
     33 C          65.2919   93.5676   11.3442 C.3     1  UNL1        0.1249
     34 C          66.4204   93.4703   10.3608 C.ar    1  UNL1       -0.0020
     35 C          67.2899   92.2483   10.3356 C.ar    1  UNL1       -0.0026
     36 C          68.4184   92.1510    9.3522 C.ar    1  UNL1       -0.0003
     37 C          68.6774   93.2756    8.3941 C.ar    1  UNL1       -0.0000
     38 C          67.8078   94.4977    8.4193 C.ar    1  UNL1       -0.0003
     39 C          66.6793   94.5950    9.4026 C.ar    1  UNL1       -0.0026
@<TRIPOS>BOND
     1    10    11    1
     2    11    12   ar
     3    12    13   ar
     4    13    14   ar
     5    14    15   ar
     6    15     9    1
     7     9     8    1
     8     8     7    1
     9     7     1    1
    10     1     2    1
    11     2     3    1
    12     3     4    1
    13     4    21    1
    14    21    22    1
    15    22    23   ar
    16    23    24   ar
    17    24    25   ar
    18    25    26   ar
    19    26    27   ar
    20    26    28    1
    21    28    33    1
    22    33    34    1
    23    34    35   ar
    24    35    36   ar
    25    36    37   ar
    26    37    38   ar
    27    38    39   ar
    28    28    29   am
    29    29    30    2
    30    29    31    1
    31    31    32    1
    32     4     5    1
    33     5     6    1
    34    15    16   ar
    35    16    17   ar
    36    17    18   ar
    37    18    19   ar
    38    19    20   ar
    39    20    11   ar
    40    19    14   ar
    41     6     1    1
    42    27    22   ar
    43    39    34   ar
    44    32    25    1
@<TRIPOS>MOLECULE
*****
 39 44 0 0 0
SMALL
GASTEIGER

@<TRIPOS>ATOM
      1 N          61.9911   86.1436    9.8874 N.3     1  UNL1       -0.2672
      2 C          61.3673   87.1131    8.9276 C.3     1  UNL1        0.0898
      3 C          61.3476   88.5783    9.2483 C.3     1  UNL1        0.0899
      4 N          61.9517   89.0740   10.5288 N.3     1  UNL1       -0.2665
      5 C          62.5755   88.1045   11.4884 C.3     1  UNL1        0.0899
      6 C          62.5952   86.6393   11.1677 C.3     1  UNL1        0.0898
      7 C          62.0108   84.6785    9.5667 C.3     1  UNL1        0.1201
      8 C          63.2253   84.0653    8.9348 C.3     1  UNL1        0.2226
      9 O          64.1683   83.2443    9.7635 O.3     1  UNL1       -0.4739
     10 C          62.7807   83.7846   16.4742 C.3     1  UNL1        0.0521
     11 C          62.9930   83.3985   15.0403 C.ar    1  UNL1        0.0593
     12 C          63.5315   84.4027   14.0650 C.ar    1  UNL1        0.0148
     13 C          63.7437   84.0166   12.6311 C.ar    1  UNL1        0.0057
     14 C          63.4175   82.6262   12.1727 C.ar    1  UNL1        0.0516
     15 C          63.6297   82.2400   10.7389 C.ar    1  UNL1        0.1400
     16 C          63.3035   80.8496   10.2804 C.ar    1  UNL1        0.0370
     17 C          62.7649   79.8452   11.2558 C.ar    1  UNL1        0.0047
     18 C          62.5527   80.2314   12.6896 C.ar    1  UNL1        0.0193
     19 C          62.8790   81.6219   13.1481 C.ar    1  UNL1        0.0838
     20 N          62.6667   82.0080   14.5819 N.ar    1  UNL1       -0.2496
     21 C          61.9320   90.5392   10.8495 C.3     1  UNL1        0.0993
     22 C          63.1813   91.2197   11.3251 C.ar    1  UNL1       -0.0047
     23 C          64.1282   91.8279   10.3334 C.ar    1  UNL1        0.0003
     24 C          65.3774   92.5083   10.8091 C.ar    1  UNL1        0.0379
     25 C          65.6798   92.5806   12.2765 C.ar    1  UNL1        0.1528
     26 C          64.7330   91.9725   13.2682 C.ar    1  UNL1        0.0881
     27 C          63.4837   91.2920   12.7925 C.ar    1  UNL1        0.0151
     28 N          65.0354   92.0448   14.7356 N.am    1  UNL1       -0.2486
     29 C          66.2846   92.7252   15.2113 C.2     1  UNL1        0.2742
     30 O          66.5870   92.7976   16.6787 O.2     1  UNL1       -0.2705
     31 C          67.2315   93.3335   14.2195 C.3     1  UNL1        0.2900
     32 O          66.9291   93.2611   12.7521 O.3     1  UNL1       -0.4643
     33 C          64.0885   91.4366   15.7274 C.3     1  UNL1        0.1249
     34 C          63.9491   89.9457   15.8143 C.ar    1  UNL1       -0.0020
     35 C          63.1705   89.3295   16.9386 C.ar    1  UNL1       -0.0026
     36 C          63.0310   87.8385   17.0255 C.ar    1  UNL1       -0.0003
     37 C          63.6701   86.9637   15.9881 C.ar    1  UNL1       -0.0000
     38 C          64.4487   87.5799   14.8637 C.ar    1  UNL1       -0.0003
     39 C          64.5882   89.0708   14.7768 C.ar    1  UNL1       -0.0026
@<TRIPOS>BOND
     1    10    11    1
     2    11    12   ar
     3    12    13   ar
     4    13    14   ar
     5    14    15   ar
     6    15     9    1
     7     9     8    1
     8     8     7    1
     9     7     1    1
    10     1     2    1
    11     2     3    1
    12     3     4    1
    13     4    21    1
    14    21    22    1
    15    22    23   ar
    16    23    24   ar
    17    24    25   ar
    18    25    26   ar
    19    26    27   ar
    20    26    28    1
    21    28    33    1
    22    33    34    1
    23    34    35   ar
    24    35    36   ar
    25    36    37   ar
    26    37    38   ar
    27    38    39   ar
    28    28    29   am
    29    29    30    2
    30    29    31    1
    31    31    32    1
    32     4     5    1
    33     5     6    1
    34    15    16   ar
    35    16    17   ar
    36    17    18   ar
    37    18    19   ar
    38    19    20   ar
    39    20    11   ar
    40    19    14   ar
    41     6     1    1
    42    27    22   ar
    43    39    34   ar
    44    32    25    1
@<TRIPOS>MOLECULE
*****
 39 44 0 0 0
SMALL
GASTEIGER

@<TRIPOS>ATOM
      1 N          61.6385   87.0346   10.2304 N.3     1  UNL1       -0.2672
      2 C          61.1399   87.9797    9.1775 C.3     1  UNL1        0.0898
      3 C          61.5042   89.4334    9.2413 C.3     1  UNL1        0.0899
      4 N          62.3671   89.9420   10.3580 N.3     1  UNL1       -0.2665
      5 C          62.8656   88.9970   11.4107 C.3     1  UNL1        0.0899
      6 C          62.5013   87.5433   11.3469 C.3     1  UNL1        0.0898
      7 C          61.2742   85.5809   10.1666 C.3     1  UNL1        0.1201
      8 C          62.3511   84.5415   10.0672 C.3     1  UNL1        0.2226
      9 O          63.2742   84.3049   11.2256 O.3     1  UNL1       -0.4739
     10 C          62.7152   77.4861   10.5605 C.3     1  UNL1        0.0521
     11 C          62.7749   78.9253   10.9791 C.ar    1  UNL1        0.0593
     12 C          63.0953   79.9874    9.9696 C.ar    1  UNL1        0.0148
     13 C          63.1549   81.4266   10.3883 C.ar    1  UNL1        0.0057
     14 C          62.8941   81.8036   11.8165 C.ar    1  UNL1        0.0516
     15 C          62.9538   83.2427   12.2351 C.ar    1  UNL1        0.1400
     16 C          62.6930   83.6198   13.6633 C.ar    1  UNL1        0.0370
     17 C          62.3726   82.5576   14.6730 C.ar    1  UNL1        0.0047
     18 C          62.3129   81.1185   14.2543 C.ar    1  UNL1        0.0193
     19 C          62.5737   80.7415   12.8260 C.ar    1  UNL1        0.0838
     20 N          62.5141   79.3023   12.4073 N.ar    1  UNL1       -0.2496
     21 C          62.7314   91.3957   10.4218 C.3     1  UNL1        0.0993
     22 C          63.9641   91.8283   11.1591 C.ar    1  UNL1       -0.0047
     23 C          65.1297   92.3948   10.4039 C.ar    1  UNL1        0.0003
     24 C          66.3622   92.8274   11.1412 C.ar    1  UNL1        0.0379
     25 C          66.4292   92.6934   12.6337 C.ar    1  UNL1        0.1528
     26 C          65.2636   92.1269   13.3889 C.ar    1  UNL1        0.0881
     27 C          64.0310   91.6943   12.6516 C.ar    1  UNL1        0.0151
     28 N          65.3306   91.9929   14.8814 N.am    1  UNL1       -0.2486
     29 C          66.5631   92.4255   15.6187 C.2     1  UNL1        0.2742
     30 O          66.6301   92.2915   17.1112 O.2     1  UNL1       -0.2705
     31 C          67.7288   92.9921   14.8635 C.3     1  UNL1        0.2900
     32 O          67.6618   93.1261   13.3710 O.3     1  UNL1       -0.4643
     33 C          64.1650   91.4264   15.6366 C.3     1  UNL1        0.1249
     34 C          63.9854   89.9404   15.7343 C.ar    1  UNL1       -0.0020
     35 C          63.2008   89.3528   16.8697 C.ar    1  UNL1       -0.0026
     36 C          63.0213   87.8668   16.9674 C.ar    1  UNL1       -0.0003
     37 C          63.6263   86.9683   15.9297 C.ar    1  UNL1       -0.0000
     38 C          64.4109   87.5559   14.7943 C.ar    1  UNL1       -0.0003
     39 C          64.5905   89.0419   14.6966 C.ar    1  UNL1       -0.0026
@<TRIPOS>BOND
     1    10    11    1
     2    11    12   ar
     3    12    13   ar
     4    13    14   ar
     5    14    15   ar
     6    15     9    1
     7     9     8    1
     8     8     7    1
     9     7     1    1
    10     1     2    1
    11     2     3    1
    12     3     4    1
    13     4    21    1
    14    21    22    1
    15    22    23   ar
    16    23    24   ar
    17    24    25   ar
    18    25    26   ar
    19    26    27   ar
    20    26    28    1
    21    28    33    1
    22    33    34    1
    23    34    35   ar
    24    35    36   ar
    25    36    37   ar
    26    37    38   ar
    27    38    39   ar
    28    28    29   am
    29    29    30    2
    30    29    31    1
    31    31    32    1
    32     4     5    1
    33     5     6    1
    34    15    16   ar
    35    16    17   ar
    36    17    18   ar
    37    18    19   ar
    38    19    20   ar
    39    20    11   ar
    40    19    14   ar
    41     6     1    1
    42    27    22   ar
    43    39    34   ar
    44    32    25    1
@<TRIPOS>MOLECULE
*****
 39 44 0 0 0
SMALL
GASTEIGER

@<TRIPOS>ATOM
      1 N          63.7656   85.1091   15.7415 N.3     1  UNL1       -0.2672
      2 C          62.8866   85.4696   16.9024 C.3     1  UNL1        0.0898
      3 C          62.6603   86.9104   17.2527 C.3     1  UNL1        0.0899
      4 N          63.3130   87.9908   16.4421 N.3     1  UNL1       -0.2665
      5 C          64.1919   87.6302   15.2814 C.3     1  UNL1        0.0899
      6 C          64.4182   86.1894   14.9311 C.3     1  UNL1        0.0898
      7 C          63.9918   83.6682   15.3912 C.3     1  UNL1        0.1201
      8 C          63.2324   83.0435   14.2585 C.3     1  UNL1        0.2226
      9 O          62.4786   83.9095   13.2931 O.3     1  UNL1       -0.4739
     10 C          60.5025   88.0887    8.2060 C.3     1  UNL1        0.0521
     11 C          61.1026   87.0605    9.1185 C.ar    1  UNL1        0.0593
     12 C          60.6782   86.9941   10.5556 C.ar    1  UNL1        0.0148
     13 C          61.2784   85.9659   11.4681 C.ar    1  UNL1        0.0057
     14 C          62.3029   85.0041   10.9435 C.ar    1  UNL1        0.0516
     15 C          62.9030   83.9759   11.8560 C.ar    1  UNL1        0.1400
     16 C          63.9275   83.0141   11.3313 C.ar    1  UNL1        0.0370
     17 C          64.3520   83.0805    9.8941 C.ar    1  UNL1        0.0047
     18 C          63.7518   84.1087    8.9816 C.ar    1  UNL1        0.0193
     19 C          62.7273   85.0705    9.5063 C.ar    1  UNL1        0.0838
     20 N          62.1271   86.0987    8.5938 N.ar    1  UNL1       -0.2496
     21 C          63.0867   89.4316   16.7924 C.3     1  UNL1        0.0993
     22 C          63.8394   90.5071   16.0666 C.ar    1  UNL1       -0.0047
     23 C          64.5254   91.5945   16.8391 C.ar    1  UNL1        0.0003
     24 C          65.2781   92.6699   16.1133 C.ar    1  UNL1        0.0379
     25 C          65.3448   92.6579   14.6148 C.ar    1  UNL1        0.1528
     26 C          64.6588   91.5705   13.8422 C.ar    1  UNL1        0.0881
     27 C          63.9061   90.4951   14.5681 C.ar    1  UNL1        0.0151
     28 N          64.7254   91.5585   12.3437 N.am    1  UNL1       -0.2486
     29 C          65.4781   92.6339   11.6178 C.2     1  UNL1        0.2742
     30 O          65.5448   92.6219   10.1194 O.2     1  UNL1       -0.2705
     31 C          66.1642   93.7214   12.3904 C.3     1  UNL1        0.2900
     32 O          66.0975   93.7334   13.8889 O.3     1  UNL1       -0.4643
     33 C          64.0394   90.4711   11.5712 C.3     1  UNL1        0.1249
     34 C          62.5434   90.3639   11.5942 C.ar    1  UNL1       -0.0020
     35 C          61.7396   90.8346   10.4185 C.ar    1  UNL1       -0.0026
     36 C          60.2436   90.7274   10.4416 C.ar    1  UNL1       -0.0003
     37 C          59.5515   90.1496   11.6403 C.ar    1  UNL1       -0.0000
     38 C          60.3553   89.6789   12.8161 C.ar    1  UNL1       -0.0003
     39 C          61.8513   89.7861   12.7930 C.ar    1  UNL1       -0.0026
@<TRIPOS>BOND
     1    10    11    1
     2    11    12   ar
     3    12    13   ar
     4    13    14   ar
     5    14    15   ar
     6    15     9    1
     7     9     8    1
     8     8     7    1
     9     7     1    1
    10     1     2    1
    11     2     3    1
    12     3     4    1
    13     4    21    1
    14    21    22    1
    15    22    23   ar
    16    23    24   ar
    17    24    25   ar
    18    25    26   ar
    19    26    27   ar
    20    26    28    1
    21    28    33    1
    22    33    34    1
    23    34    35   ar
    24    35    36   ar
    25    36    37   ar
    26    37    38   ar
    27    38    39   ar
    28    28    29   am
    29    29    30    2
    30    29    31    1
    31    31    32    1
    32     4     5    1
    33     5     6    1
    34    15    16   ar
    35    16    17   ar
    36    17    18   ar
    37    18    19   ar
    38    19    20   ar
    39    20    11   ar
    40    19    14   ar
    41     6     1    1
    42    27    22   ar
    43    39    34   ar
    44    32    25    1
@<TRIPOS>MOLECULE
*****
 39 44 0 0 0
SMALL
GASTEIGER

@<TRIPOS>ATOM
      1 N          60.3455   92.2600    3.6414 N.3     1  UNL1       -0.2672
      2 C          61.2006   91.3046    4.4199 C.3     1  UNL1        0.0898
      3 C          60.5864   90.4448    5.4845 C.3     1  UNL1        0.0899
      4 N          59.1170   90.5403    5.7706 N.3     1  UNL1       -0.2665
      5 C          58.2619   91.4957    4.9921 C.3     1  UNL1        0.0899
      6 C          58.8761   92.3556    3.9275 C.3     1  UNL1        0.0898
      7 C          60.9597   93.1199    2.5768 C.3     1  UNL1        0.1201
      8 C          61.9385   92.5277    1.6065 C.3     1  UNL1        0.2226
      9 O          61.4470   91.8858    0.3431 O.3     1  UNL1       -0.4739
     10 C          55.6253   94.0718   -2.5860 C.3     1  UNL1        0.0521
     11 C          57.0233   93.7340   -2.1600 C.ar    1  UNL1        0.0593
     12 C          57.2530   92.8994   -0.9349 C.ar    1  UNL1        0.0148
     13 C          58.6510   92.5616   -0.5089 C.ar    1  UNL1        0.0057
     14 C          59.8193   93.0582   -1.3080 C.ar    1  UNL1        0.0516
     15 C          61.2172   92.7203   -0.8820 C.ar    1  UNL1        0.1400
     16 C          62.3855   93.2169   -1.6810 C.ar    1  UNL1        0.0370
     17 C          62.1558   94.0515   -2.9061 C.ar    1  UNL1        0.0047
     18 C          60.7578   94.3894   -3.3321 C.ar    1  UNL1        0.0193
     19 C          59.5895   93.8927   -2.5330 C.ar    1  UNL1        0.0838
     20 N          58.1915   94.2306   -2.9590 N.ar    1  UNL1       -0.2496
     21 C          58.5027   89.6805    6.8352 C.3     1  UNL1        0.0993
     22 C          59.3343   88.6493    7.5389 C.ar    1  UNL1       -0.0047
     23 C          59.4400   87.2616    6.9792 C.ar    1  UNL1        0.0003
     24 C          60.2716   86.2305    7.6829 C.ar    1  UNL1        0.0379
     25 C          60.9975   86.5870    8.9462 C.ar    1  UNL1        0.1528
     26 C          60.8919   87.9747    9.5058 C.ar    1  UNL1        0.0881
     27 C          60.0603   89.0058    8.8022 C.ar    1  UNL1        0.0151
     28 N          61.6178   88.3312   10.7691 N.am    1  UNL1       -0.2486
     29 C          62.4494   87.3001   11.4728 C.2     1  UNL1        0.2742
     30 O          63.1753   87.6566   12.7361 O.2     1  UNL1       -0.2705
     31 C          62.5551   85.9123   10.9132 C.3     1  UNL1        0.2900
     32 O          61.8291   85.5558    9.6499 O.3     1  UNL1       -0.4643
     33 C          61.5121   89.7188   11.3288 C.3     1  UNL1        0.1249
     34 C          62.7417   90.5664   11.4697 C.ar    1  UNL1       -0.0020
     35 C          63.4120   90.6993   12.8049 C.ar    1  UNL1       -0.0026
     36 C          64.6416   91.5468   12.9458 C.ar    1  UNL1       -0.0003
     37 C          65.2008   92.2614   11.7515 C.ar    1  UNL1       -0.0000
     38 C          64.5305   92.1285   10.4161 C.ar    1  UNL1       -0.0003
     39 C          63.3009   91.2810   10.2752 C.ar    1  UNL1       -0.0026
@<TRIPOS>BOND
     1    10    11    1
     2    11    12   ar
     3    12    13   ar
     4    13    14   ar
     5    14    15   ar
     6    15     9    1
     7     9     8    1
     8     8     7    1
     9     7     1    1
    10     1     2    1
    11     2     3    1
    12     3     4    1
    13     4    21    1
    14    21    22    1
    15    22    23   ar
    16    23    24   ar
    17    24    25   ar
    18    25    26   ar
    19    26    27   ar
    20    26    28    1
    21    28    33    1
    22    33    34    1
    23    34    35   ar
    24    35    36   ar
    25    36    37   ar
    26    37    38   ar
    27    38    39   ar
    28    28    29   am
    29    29    30    2
    30    29    31    1
    31    31    32    1
    32     4     5    1
    33     5     6    1
    34    15    16   ar
    35    16    17   ar
    36    17    18   ar
    37    18    19   ar
    38    19    20   ar
    39    20    11   ar
    40    19    14   ar
    41     6     1    1
    42    27    22   ar
    43    39    34   ar
    44    32    25    1
@<TRIPOS>MOLECULE
*****
 39 44 0 0 0
SMALL
GASTEIGER

@<TRIPOS>ATOM
      1 N          64.4191   90.8846   13.4874 N.3     1  UNL1       -0.2672
      2 C          63.6488   91.3990   12.3075 C.3     1  UNL1        0.0898
      3 C          62.7446   90.4782   11.5429 C.3     1  UNL1        0.0899
      4 N          62.6106   89.0431   11.9583 N.3     1  UNL1       -0.2665
      5 C          63.3808   88.5288   13.1382 C.3     1  UNL1        0.0899
      6 C          64.2851   89.4495   13.9027 C.3     1  UNL1        0.0898
      7 C          65.3233   91.8054   14.2519 C.3     1  UNL1        0.1201
      8 C          66.2546   92.7231   13.5167 C.3     1  UNL1        0.2226
      9 O          65.8344   94.1302   13.2107 O.3     1  UNL1       -0.4739
     10 C          69.3064   91.6123    7.8389 C.3     1  UNL1        0.0521
     11 C          68.5434   92.4030    8.8600 C.ar    1  UNL1        0.0593
     12 C          68.1234   91.7580   10.1475 C.ar    1  UNL1        0.0148
     13 C          67.3604   92.5488   11.1686 C.ar    1  UNL1        0.0057
     14 C          67.0174   93.9845   10.9022 C.ar    1  UNL1        0.0516
     15 C          66.2544   94.7752   11.9233 C.ar    1  UNL1        0.1400
     16 C          65.9113   96.2109   11.6569 C.ar    1  UNL1        0.0370
     17 C          66.3312   96.8560   10.3694 C.ar    1  UNL1        0.0047
     18 C          67.0943   96.0653    9.3483 C.ar    1  UNL1        0.0193
     19 C          67.4373   94.6295    9.6147 C.ar    1  UNL1        0.0838
     20 N          68.2003   93.8388    8.5937 N.ar    1  UNL1       -0.2496
     21 C          61.7063   88.1223   11.1938 C.3     1  UNL1        0.0993
     22 C          62.2006   86.7734   10.7622 C.ar    1  UNL1       -0.0047
     23 C          62.6941   86.5686    9.3606 C.ar    1  UNL1        0.0003
     24 C          63.1884   85.2198    8.9291 C.ar    1  UNL1        0.0379
     25 C          63.1891   84.0757    9.8992 C.ar    1  UNL1        0.1528
     26 C          62.6956   84.2805   11.3008 C.ar    1  UNL1        0.0881
     27 C          62.2014   85.6293   11.7323 C.ar    1  UNL1        0.0151
     28 N          62.6964   83.1364   12.2709 N.am    1  UNL1       -0.2486
     29 C          63.1907   81.7875   11.8394 C.2     1  UNL1        0.2742
     30 O          63.1914   80.6434   12.8095 O.2     1  UNL1       -0.2705
     31 C          63.6842   81.5827   10.4378 C.3     1  UNL1        0.2900
     32 O          63.6834   82.7268    9.4677 O.3     1  UNL1       -0.4643
     33 C          62.2029   83.3412   13.6725 C.3     1  UNL1        0.1249
     34 C          62.8846   84.3305   14.5706 C.ar    1  UNL1       -0.0020
     35 C          64.2473   84.8487   14.2181 C.ar    1  UNL1       -0.0026
     36 C          64.9290   85.8379   15.1162 C.ar    1  UNL1       -0.0003
     37 C          64.2479   86.3091   16.3669 C.ar    1  UNL1       -0.0000
     38 C          62.8851   85.7909   16.7194 C.ar    1  UNL1       -0.0003
     39 C          62.2034   84.8016   15.8213 C.ar    1  UNL1       -0.0026
@<TRIPOS>BOND
     1    10    11    1
     2    11    12   ar
     3    12    13   ar
     4    13    14   ar
     5    14    15   ar
     6    15     9    1
     7     9     8    1
     8     8     7    1
     9     7     1    1
    10     1     2    1
    11     2     3    1
    12     3     4    1
    13     4    21    1
    14    21    22    1
    15    22    23   ar
    16    23    24   ar
    17    24    25   ar
    18    25    26   ar
    19    26    27   ar
    20    26    28    1
    21    28    33    1
    22    33    34    1
    23    34    35   ar
    24    35    36   ar
    25    36    37   ar
    26    37    38   ar
    27    38    39   ar
    28    28    29   am
    29    29    30    2
    30    29    31    1
    31    31    32    1
    32     4     5    1
    33     5     6    1
    34    15    16   ar
    35    16    17   ar
    36    17    18   ar
    37    18    19   ar
    38    19    20   ar
    39    20    11   ar
    40    19    14   ar
    41     6     1    1
    42    27    22   ar
    43    39    34   ar
    44    32    25    1
@<TRIPOS>MOLECULE
*****
 39 44 0 0 0
SMALL
GASTEIGER

@<TRIPOS>ATOM
      1 N          60.3370   92.1906    3.6631 N.3     1  UNL1       -0.2672
      2 C          61.1958   91.2316    4.4330 C.3     1  UNL1        0.0898
      3 C          60.5937   90.3925    5.5208 C.3     1  UNL1        0.0899
      4 N          59.1326   90.5125    5.8387 N.3     1  UNL1       -0.2665
      5 C          58.2738   91.4715    5.0688 C.3     1  UNL1        0.0899
      6 C          58.8760   92.3105    3.9810 C.3     1  UNL1        0.0898
      7 C          60.9391   93.0297    2.5752 C.3     1  UNL1        0.1201
      8 C          62.3391   92.7607    2.1085 C.3     1  UNL1        0.2226
      9 O          62.7522   93.1416    0.7178 O.3     1  UNL1       -0.4739
     10 C          65.3146   95.8381   -5.0626 C.3     1  UNL1        0.0521
     11 C          64.8988   95.4591   -3.6721 C.ar    1  UNL1        0.0593
     12 C          63.9995   94.2787   -3.4537 C.ar    1  UNL1        0.0148
     13 C          63.5838   93.8997   -2.0632 C.ar    1  UNL1        0.0057
     14 C          64.0673   94.7011   -0.8911 C.ar    1  UNL1        0.0516
     15 C          63.6516   94.3221    0.4994 C.ar    1  UNL1        0.1400
     16 C          64.1352   95.1235    1.6715 C.ar    1  UNL1        0.0370
     17 C          65.0346   96.3039    1.4531 C.ar    1  UNL1        0.0047
     18 C          65.4503   96.6830    0.0626 C.ar    1  UNL1        0.0193
     19 C          64.9667   95.8815   -1.1095 C.ar    1  UNL1        0.0838
     20 N          65.3824   96.2605   -2.5000 N.ar    1  UNL1       -0.2496
     21 C          58.5305   89.6734    6.9265 C.3     1  UNL1        0.0993
     22 C          59.3591   88.6286    7.6135 C.ar    1  UNL1       -0.0047
     23 C          59.4645   87.2512    7.0290 C.ar    1  UNL1        0.0003
     24 C          60.2930   86.2064    7.7160 C.ar    1  UNL1        0.0379
     25 C          61.0162   86.5391    8.9873 C.ar    1  UNL1        0.1528
     26 C          60.9108   87.9165    9.5718 C.ar    1  UNL1        0.0881
     27 C          60.0822   88.9612    8.8848 C.ar    1  UNL1        0.0151
     28 N          61.6340   88.2492   10.8431 N.am    1  UNL1       -0.2486
     29 C          62.4626   87.2044   11.5301 C.2     1  UNL1        0.2742
     30 O          63.1857   87.5371   12.8014 O.2     1  UNL1       -0.2705
     31 C          62.5680   85.8269   10.9456 C.3     1  UNL1        0.2900
     32 O          61.8448   85.4943    9.6743 O.3     1  UNL1       -0.4643
     33 C          61.5286   89.6266   11.4275 C.3     1  UNL1        0.1249
     34 C          62.7454   90.4993   11.5149 C.ar    1  UNL1       -0.0020
     35 C          63.4483   90.6769   12.8281 C.ar    1  UNL1       -0.0026
     36 C          64.6651   91.5497   12.9155 C.ar    1  UNL1       -0.0003
     37 C          65.1790   92.2449   11.6898 C.ar    1  UNL1       -0.0000
     38 C          64.4762   92.0673   10.3765 C.ar    1  UNL1       -0.0003
     39 C          63.2594   91.1946   10.2891 C.ar    1  UNL1       -0.0026
@<TRIPOS>BOND
     1    10    11    1
     2    11    12   ar
     3    12    13   ar
     4    13    14   ar
     5    14    15   ar
     6    15     9    1
     7     9     8    1
     8     8     7    1
     9     7     1    1
    10     1     2    1
    11     2     3    1
    12     3     4    1
    13     4    21    1
    14    21    22    1
    15    22    23   ar
    16    23    24   ar
    17    24    25   ar
    18    25    26   ar
    19    26    27   ar
    20    26    28    1
    21    28    33    1
    22    33    34    1
    23    34    35   ar
    24    35    36   ar
    25    36    37   ar
    26    37    38   ar
    27    38    39   ar
    28    28    29   am
    29    29    30    2
    30    29    31    1
    31    31    32    1
    32     4     5    1
    33     5     6    1
    34    15    16   ar
    35    16    17   ar
    36    17    18   ar
    37    18    19   ar
    38    19    20   ar
    39    20    11   ar
    40    19    14   ar
    41     6     1    1
    42    27    22   ar
    43    39    34   ar
    44    32    25    1
@<TRIPOS>MOLECULE
*****
 39 44 0 0 0
SMALL
GASTEIGER

@<TRIPOS>ATOM
      1 N          63.8986   85.4199   15.3483 N.3     1  UNL1       -0.2672
      2 C          63.2373   86.2124   16.4367 C.3     1  UNL1        0.0898
      3 C          63.0557   87.6933   16.2817 C.3     1  UNL1        0.0899
      4 N          63.5352   88.3816   15.0381 N.3     1  UNL1       -0.2665
      5 C          64.1964   87.5890   13.9497 C.3     1  UNL1        0.0899
      6 C          64.3781   86.1082   14.1048 C.3     1  UNL1        0.0898
      7 C          64.0802   83.9390   15.5033 C.3     1  UNL1        0.1201
      8 C          63.2531   82.9922   14.6851 C.3     1  UNL1        0.2226
      9 O          62.3407   83.5223   13.6191 O.3     1  UNL1       -0.4739
     10 C          60.9519   88.2267    8.8035 C.3     1  UNL1        0.0521
     11 C          61.4225   87.0850    9.6550 C.ar    1  UNL1        0.0593
     12 C          60.9286   86.9473   11.0646 C.ar    1  UNL1        0.0148
     13 C          61.3993   85.8056   11.9161 C.ar    1  UNL1        0.0057
     14 C          62.3639   84.8017   11.3580 C.ar    1  UNL1        0.0516
     15 C          62.8346   83.6600   12.2095 C.ar    1  UNL1        0.1400
     16 C          63.7992   82.6561   11.6514 C.ar    1  UNL1        0.0370
     17 C          64.2932   82.7937   10.2417 C.ar    1  UNL1        0.0047
     18 C          63.8225   83.9354    9.3902 C.ar    1  UNL1        0.0193
     19 C          62.8579   84.9394    9.9484 C.ar    1  UNL1        0.0838
     20 N          62.3872   86.0811    9.0969 N.ar    1  UNL1       -0.2496
     21 C          63.3536   89.8624   14.8831 C.3     1  UNL1        0.0993
     22 C          64.4166   90.8033   15.3678 C.ar    1  UNL1       -0.0047
     23 C          64.2177   91.5663   16.6439 C.ar    1  UNL1        0.0003
     24 C          65.2807   92.5070   17.1286 C.ar    1  UNL1        0.0379
     25 C          66.5425   92.6849   16.3372 C.ar    1  UNL1        0.1528
     26 C          66.7413   91.9219   15.0612 C.ar    1  UNL1        0.0881
     27 C          65.6784   90.9811   14.5765 C.ar    1  UNL1        0.0151
     28 N          68.0032   92.0998   14.2698 N.am    1  UNL1       -0.2486
     29 C          69.0661   93.0406   14.7545 C.2     1  UNL1        0.2742
     30 O          70.3279   93.2184   13.9632 O.2     1  UNL1       -0.2705
     31 C          68.8673   93.8036   16.0306 C.3     1  UNL1        0.2900
     32 O          67.6055   93.6257   16.8220 O.3     1  UNL1       -0.4643
     33 C          68.2020   91.3368   12.9938 C.3     1  UNL1        0.1249
     34 C          67.9152   91.9924   11.6755 C.ar    1  UNL1       -0.0020
     35 C          68.8382   91.7750   10.5133 C.ar    1  UNL1       -0.0026
     36 C          68.5514   92.4306    9.1949 C.ar    1  UNL1       -0.0003
     37 C          67.3417   93.3036    9.0389 C.ar    1  UNL1       -0.0000
     38 C          66.4186   93.5210   10.2011 C.ar    1  UNL1       -0.0003
     39 C          66.7054   92.8654   11.5195 C.ar    1  UNL1       -0.0026
@<TRIPOS>BOND
     1    10    11    1
     2    11    12   ar
     3    12    13   ar
     4    13    14   ar
     5    14    15   ar
     6    15     9    1
     7     9     8    1
     8     8     7    1
     9     7     1    1
    10     1     2    1
    11     2     3    1
    12     3     4    1
    13     4    21    1
    14    21    22    1
    15    22    23   ar
    16    23    24   ar
    17    24    25   ar
    18    25    26   ar
    19    26    27   ar
    20    26    28    1
    21    28    33    1
    22    33    34    1
    23    34    35   ar
    24    35    36   ar
    25    36    37   ar
    26    37    38   ar
    27    38    39   ar
    28    28    29   am
    29    29    30    2
    30    29    31    1
    31    31    32    1
    32     4     5    1
    33     5     6    1
    34    15    16   ar
    35    16    17   ar
    36    17    18   ar
    37    18    19   ar
    38    19    20   ar
    39    20    11   ar
    40    19    14   ar
    41     6     1    1
    42    27    22   ar
    43    39    34   ar
    44    32    25    1
