@<TRIPOS>MOLECULE
*****
 43 46 0 0 0
SMALL
GASTEIGER

@<TRIPOS>ATOM
      1 C          63.6017   89.7999   12.6828 C.3     1  UNL1        0.1085
      2 O          63.4558   89.2830   11.2822 O.3     1  UNL1       -0.3826
      3 H          63.3195   90.0274   10.6754 H       1  UNL1        0.2107
      4 C          63.7737   88.3962   13.1829 C.3     1  UNL1        0.0484
      5 C          64.4999   88.1426   14.4706 C.3     1  UNL1        0.0061
      6 C          64.6719   86.7388   14.9707 C.3     1  UNL1        0.0217
      7 C          64.1177   85.5889   14.1831 C.3     1  UNL1        0.0934
      8 N          63.3915   85.8425   12.8953 N.am    1  UNL1       -0.2795
      9 C          62.8373   84.6925   12.1077 C.2     1  UNL1        0.2252
     10 O          62.1111   84.9462   10.8199 O.2     1  UNL1       -0.2749
     11 C          63.2195   87.2462   12.3952 C.3     1  UNL1        0.0960
     12 C          63.0093   83.2888   12.6078 C.3     1  UNL1        0.0781
     13 C          64.3024   82.5325   12.6846 C.3     1  UNL1        0.0105
     14 C          64.0107   81.1712   13.2432 C.3     1  UNL1        0.0162
     15 C          62.5374   81.0864   13.5117 C.3     1  UNL1        0.0545
     16 C          61.9185   82.3951   13.1190 C.3     1  UNL1        0.0248
     17 N          61.8105   79.9009   14.0741 N.3     1  UNL1       -0.2974
     18 C          60.3150   79.9228   14.1879 C.3     1  UNL1        0.0858
     19 H          62.1753   79.7510   15.0148 H       1  UNL1        0.1232
     20 C          64.8610   91.2634   14.4213 C.ar    1  UNL1        0.0088
     21 C          65.0069   91.7802   15.8218 C.ar    1  UNL1        0.0574
     22 CL         66.1203   92.7268   16.1597 Cl      1  UNL1       -0.0823
     23 C          64.0393   91.3505   16.8845 C.ar    1  UNL1        0.0114
     24 C          62.9259   90.4039   16.5466 C.ar    1  UNL1        0.0006
     25 C          62.7800   89.8870   15.1460 C.ar    1  UNL1       -0.0020
     26 C          63.7476   90.3168   14.0834 C.ar    1  UNL1        0.0026
     27 C          66.3738   93.1166   11.2547 C.ar    1  UNL1       -0.0222
     28 C          67.7635   92.5526   11.2333 C.ar    1  UNL1       -0.0043
     29 C          68.1857   91.5588   12.2745 C.ar    1  UNL1       -0.0003
     30 C          67.2183   91.1291   13.3372 C.ar    1  UNL1       -0.0000
     31 C          65.8285   91.6931   13.3586 C.ar    1  UNL1        0.0003
     32 C          65.4063   92.6869   12.3174 C.ar    1  UNL1       -0.0042
     33 C          66.9593   94.6578    9.2468 C.3     1  UNL1        0.0050
     34 C          65.9515   94.1104   10.2135 C.3     1  UNL1        0.0264
     35 C          63.4297   91.2035   12.1826 C.3     1  UNL1        0.0329
     36 C          62.6077   91.4672   10.9559 C.3     1  UNL1        0.0241
     37 C          61.2089   90.9342   10.8615 C.3     1  UNL1        0.0928
     38 N          60.8575   89.9334    9.8009 N.am    1  UNL1       -0.2707
     39 C          60.2432   88.6195   10.1834 C.2     1  UNL1        0.4017
     40 O          59.9802   88.3064   11.6266 O.2     1  UNL1       -0.2264
     41 H          61.0302   90.1388    8.8537 H       1  UNL1        0.1527
     42 O          59.8919   87.6187    9.1227 O.3     1  UNL1       -0.4306
     43 C          59.4173   88.0858    7.7786 C.3     1  UNL1        0.2573
@<TRIPOS>BOND
     1    33    34    1
     2    34    27    1
     3    27    28   ar
     4    28    29   ar
     5    29    30   ar
     6    30    31   ar
     7    31    20    1
     8    20    21   ar
     9    21    22    1
    10    21    23   ar
    11    23    24   ar
    12    24    25   ar
    13    25    26   ar
    14    26     1    1
    15     1     2    1
    16     1    35    1
    17    35    36    1
    18    36    37    1
    19    37    38    1
    20    38    39   am
    21    39    40    2
    22    39    42    1
    23    42    43    1
    24     4     1    1
    25     4     5    1
    26     5     6    1
    27     6     7    1
    28     7     8    1
    29     8     9   am
    30     9    10    2
    31    12     9    1
    32    12    13    1
    33    13    14    1
    34    14    15    1
    35    15    17    1
    36    17    18    1
    37    15    16    1
    38     8    11    1
    39    31    32   ar
    40    32    27   ar
    41    26    20   ar
    42    11     4    1
    43    16    12    1
    44     2     3    1
    45    38    41    1
    46    17    19    1
@<TRIPOS>MOLECULE
*****
 43 46 0 0 0
SMALL
GASTEIGER

@<TRIPOS>ATOM
      1 C          63.0599   88.5410   12.4226 C.3     1  UNL1        0.1085
      2 O          64.4687   88.3626   12.9057 O.3     1  UNL1       -0.3826
      3 H          64.5315   87.5458   13.4251 H       1  UNL1        0.2107
      4 C          63.4551   89.8177   11.7416 C.3     1  UNL1        0.0484
      5 C          62.8513   90.1790   10.4169 C.3     1  UNL1        0.0061
      6 C          63.2465   91.4558    9.7358 C.3     1  UNL1        0.0217
      7 C          64.2454   92.3711   10.3795 C.3     1  UNL1        0.0934
      8 N          64.8491   92.0097   11.7042 N.am    1  UNL1       -0.2795
      9 C          65.8481   92.9251   12.3479 C.2     1  UNL1        0.2252
     10 O          66.4518   92.5638   13.6726 O.2     1  UNL1       -0.2749
     11 C          64.4540   90.7330   12.3853 C.3     1  UNL1        0.0960
     12 C          66.2432   94.2018   11.6669 C.3     1  UNL1        0.0781
     13 C          66.1265   95.5815   12.2438 C.3     1  UNL1        0.0105
     14 C          66.6356   96.5554   11.2227 C.3     1  UNL1        0.0162
     15 C          67.0670   95.7776   10.0149 C.3     1  UNL1        0.0545
     16 C          66.8245   94.3230   10.2894 C.3     1  UNL1        0.0248
     17 N          67.6402   96.3533    8.7540 N.3     1  UNL1       -0.2974
     18 C          66.7264   96.8405    7.6688 C.3     1  UNL1        0.0858
     19 H          68.2285   95.6298    8.3408 H       1  UNL1        0.1232
     20 C          61.0904   87.7911   10.9031 C.ar    1  UNL1        0.0088
     21 C          59.6816   87.9694   10.4199 C.ar    1  UNL1        0.0574
     22 CL         59.1210   87.0412    9.3836 Cl      1  UNL1       -0.0823
     23 C          58.8334   89.0760   10.9732 C.ar    1  UNL1        0.0114
     24 C          59.3940   90.0043   12.0096 C.ar    1  UNL1        0.0006
     25 C          60.8029   89.8259   12.4927 C.ar    1  UNL1       -0.0020
     26 C          61.6510   88.7193   11.9395 C.ar    1  UNL1        0.0026
     27 C          62.9777   84.3147   10.5827 C.ar    1  UNL1       -0.0222
     28 C          63.6350   84.4713    9.2435 C.ar    1  UNL1       -0.0043
     29 C          63.4441   85.7346    8.4575 C.ar    1  UNL1       -0.0003
     30 C          62.5959   86.8412    9.0107 C.ar    1  UNL1       -0.0000
     31 C          61.9386   86.6845   10.3499 C.ar    1  UNL1        0.0003
     32 C          62.1295   85.4212   11.1358 C.ar    1  UNL1       -0.0042
     33 C          64.5500   82.6026   11.7432 C.3     1  UNL1        0.0050
     34 C          63.1686   83.0514   11.3687 C.3     1  UNL1        0.0264
     35 C          62.6648   87.2643   13.1036 C.3     1  UNL1        0.0329
     36 C          63.7076   86.4140   13.7667 C.3     1  UNL1        0.0241
     37 C          63.3210   85.4825   14.8769 C.3     1  UNL1        0.0928
     38 N          62.2739   84.4337   14.6456 N.am    1  UNL1       -0.2707
     39 C          62.6049   82.9852   14.8513 C.2     1  UNL1        0.4017
     40 O          63.9831   82.5855   15.2883 O.2     1  UNL1       -0.2264
     41 H          61.3693   84.6960   14.3588 H       1  UNL1        0.1527
     42 O          61.5578   81.9364   14.6200 O.3     1  UNL1       -0.4306
     43 C          61.8712   80.7372   13.7750 C.3     1  UNL1        0.2573
@<TRIPOS>BOND
     1    33    34    1
     2    34    27    1
     3    27    28   ar
     4    28    29   ar
     5    29    30   ar
     6    30    31   ar
     7    31    20    1
     8    20    21   ar
     9    21    22    1
    10    21    23   ar
    11    23    24   ar
    12    24    25   ar
    13    25    26   ar
    14    26     1    1
    15     1     2    1
    16     1    35    1
    17    35    36    1
    18    36    37    1
    19    37    38    1
    20    38    39   am
    21    39    40    2
    22    39    42    1
    23    42    43    1
    24     4     1    1
    25     4     5    1
    26     5     6    1
    27     6     7    1
    28     7     8    1
    29     8     9   am
    30     9    10    2
    31    12     9    1
    32    12    13    1
    33    13    14    1
    34    14    15    1
    35    15    17    1
    36    17    18    1
    37    15    16    1
    38     8    11    1
    39    31    32   ar
    40    32    27   ar
    41    26    20   ar
    42    11     4    1
    43    16    12    1
    44     2     3    1
    45    38    41    1
    46    17    19    1
@<TRIPOS>MOLECULE
*****
 43 46 0 0 0
SMALL
GASTEIGER

@<TRIPOS>ATOM
      1 C          63.0375   88.5778   12.4578 C.3     1  UNL1        0.1085
      2 O          64.4415   88.4185   12.9614 O.3     1  UNL1       -0.3826
      3 H          64.4996   87.6207   13.5100 H       1  UNL1        0.2107
      4 C          63.4385   89.8300   11.7359 C.3     1  UNL1        0.0484
      5 C          62.7984   90.1774   10.4246 C.3     1  UNL1        0.0061
      6 C          63.1994   91.4297    9.7027 C.3     1  UNL1        0.0217
      7 C          64.2405   92.3345   10.2922 C.3     1  UNL1        0.0934
      8 N          64.8805   91.9871   11.6036 N.am    1  UNL1       -0.2795
      9 C          65.9216   92.8920   12.1930 C.2     1  UNL1        0.2252
     10 O          66.5617   92.5446   13.5044 O.2     1  UNL1       -0.2749
     11 C          64.4796   90.7349   12.3254 C.3     1  UNL1        0.0960
     12 C          66.3226   94.1442   11.4712 C.3     1  UNL1        0.0781
     13 C          66.1196   95.5475   11.9607 C.3     1  UNL1        0.0105
     14 C          66.6685   96.4836   10.9250 C.3     1  UNL1        0.0162
     15 C          67.2107   95.6588    9.7955 C.3     1  UNL1        0.0545
     16 C          66.9969   94.2130   10.1330 C.3     1  UNL1        0.0248
     17 N          67.8538   96.1872    8.5476 N.3     1  UNL1       -0.2974
     18 C          67.0165   96.8551    7.4975 C.3     1  UNL1        0.0858
     19 H          68.3158   95.3971    8.0973 H       1  UNL1        0.1232
     20 C          61.0846   87.7722   10.9454 C.ar    1  UNL1        0.0088
     21 C          59.6807   87.9314   10.4418 C.ar    1  UNL1        0.0574
     22 CL         59.1318   86.9665    9.4331 Cl      1  UNL1       -0.0823
     23 C          58.8257   89.0556   10.9470 C.ar    1  UNL1        0.0114
     24 C          59.3746   90.0206   11.9558 C.ar    1  UNL1        0.0006
     25 C          60.7786   89.8612   12.4594 C.ar    1  UNL1       -0.0020
     26 C          61.6336   88.7371   11.9542 C.ar    1  UNL1        0.0026
     27 C          63.0360   84.3197   10.7965 C.ar    1  UNL1       -0.0222
     28 C          63.6496   84.3996    9.4301 C.ar    1  UNL1       -0.0043
     29 C          63.4082   85.6037    8.5688 C.ar    1  UNL1       -0.0003
     30 C          62.5532   86.7279    9.0739 C.ar    1  UNL1       -0.0000
     31 C          61.9397   86.6479   10.4403 C.ar    1  UNL1        0.0003
     32 C          62.1811   85.4438   11.3016 C.ar    1  UNL1       -0.0042
     33 C          62.7841   83.0955   13.0742 C.3     1  UNL1        0.0050
     34 C          63.2775   83.1155   11.6578 C.3     1  UNL1        0.0264
     35 C          62.6366   87.3256   13.1797 C.3     1  UNL1        0.0329
     36 C          63.5909   86.6722   14.1348 C.3     1  UNL1        0.0241
     37 C          63.5257   86.9945   15.5983 C.3     1  UNL1        0.0928
     38 N          63.9786   88.3367   16.0916 N.am    1  UNL1       -0.2707
     39 C          62.9746   89.4245   16.3340 C.2     1  UNL1        0.4017
     40 O          61.5178   89.1701   16.0832 O.2     1  UNL1       -0.2264
     41 H          64.9347   88.5038   16.2562 H       1  UNL1        0.1527
     42 O          63.4275   90.7668   16.8273 O.3     1  UNL1       -0.4306
     43 C          64.3498   91.6017   15.9892 C.3     1  UNL1        0.2573
@<TRIPOS>BOND
     1    33    34    1
     2    34    27    1
     3    27    28   ar
     4    28    29   ar
     5    29    30   ar
     6    30    31   ar
     7    31    20    1
     8    20    21   ar
     9    21    22    1
    10    21    23   ar
    11    23    24   ar
    12    24    25   ar
    13    25    26   ar
    14    26     1    1
    15     1     2    1
    16     1    35    1
    17    35    36    1
    18    36    37    1
    19    37    38    1
    20    38    39   am
    21    39    40    2
    22    39    42    1
    23    42    43    1
    24     4     1    1
    25     4     5    1
    26     5     6    1
    27     6     7    1
    28     7     8    1
    29     8     9   am
    30     9    10    2
    31    12     9    1
    32    12    13    1
    33    13    14    1
    34    14    15    1
    35    15    17    1
    36    17    18    1
    37    15    16    1
    38     8    11    1
    39    31    32   ar
    40    32    27   ar
    41    26    20   ar
    42    11     4    1
    43    16    12    1
    44     2     3    1
    45    38    41    1
    46    17    19    1
@<TRIPOS>MOLECULE
*****
 43 46 0 0 0
SMALL
GASTEIGER

@<TRIPOS>ATOM
      1 C          62.4249   87.3443   12.0943 C.3     1  UNL1        0.1085
      2 O          63.5814   87.1814   13.0355 O.3     1  UNL1       -0.3826
      3 H          63.5269   86.3148   13.4678 H       1  UNL1        0.2107
      4 C          62.9232   88.7081   11.7180 C.3     1  UNL1        0.0484
      5 C          62.5305   89.3137   10.4031 C.3     1  UNL1        0.0061
      6 C          63.0289   90.6776   10.0268 C.3     1  UNL1        0.0217
      7 C          63.9199   91.4358   10.9654 C.3     1  UNL1        0.0934
      8 N          64.3126   90.8303   12.2804 N.am    1  UNL1       -0.2795
      9 C          65.2036   91.5886   13.2191 C.2     1  UNL1        0.2252
     10 O          65.5963   90.9830   14.5341 O.2     1  UNL1       -0.2749
     11 C          63.8142   89.4664   12.6567 C.3     1  UNL1        0.0960
     12 C          65.7019   92.9524   12.8428 C.3     1  UNL1        0.0781
     13 C          66.3318   93.9481   13.7712 C.3     1  UNL1        0.0105
     14 C          66.6770   95.1711   12.9741 C.3     1  UNL1        0.0162
     15 C          66.2606   94.9312   11.5533 C.3     1  UNL1        0.0545
     16 C          65.6580   93.5600   11.4721 C.3     1  UNL1        0.0248
     17 N          66.4190   95.8936   10.4136 N.3     1  UNL1       -0.2974
     18 C          65.2288   96.6460    9.8965 C.3     1  UNL1        0.0858
     19 H          66.7946   95.3613    9.6288 H       1  UNL1        0.1232
     20 C          61.1346   86.6010    9.9652 C.ar    1  UNL1        0.0088
     21 C          59.9781   86.7639    9.0240 C.ar    1  UNL1        0.0574
     22 CL         59.8444   85.8577    7.8362 Cl      1  UNL1       -0.0823
     23 C          58.9553   87.8331    9.2705 C.ar    1  UNL1        0.0114
     24 C          59.0890   88.7393   10.4583 C.ar    1  UNL1        0.0006
     25 C          60.2455   88.5764   11.3996 C.ar    1  UNL1       -0.0020
     26 C          61.2683   87.5073   11.1530 C.ar    1  UNL1        0.0026
     27 C          63.1917   83.2258   10.3207 C.ar    1  UNL1       -0.0222
     28 C          64.2030   83.3936    9.2257 C.ar    1  UNL1       -0.0043
     29 C          64.1916   84.6305    8.3773 C.ar    1  UNL1       -0.0003
     30 C          63.1688   85.6996    8.6238 C.ar    1  UNL1       -0.0000
     31 C          62.1575   85.5318    9.7187 C.ar    1  UNL1        0.0003
     32 C          62.1689   84.2949   10.5672 C.ar    1  UNL1       -0.0042
     33 C          63.1317   80.6364   10.5244 C.3     1  UNL1        0.0050
     34 C          63.2031   81.9888   11.1691 C.3     1  UNL1        0.0264
     35 C          61.9266   85.9805   12.4706 C.3     1  UNL1        0.0329
     36 C          62.8438   85.0082   13.1513 C.3     1  UNL1        0.0241
     37 C          62.3269   84.1388   14.2588 C.3     1  UNL1        0.0928
     38 N          61.7135   84.7621   15.4776 N.am    1  UNL1       -0.2707
     39 C          62.5878   85.4154   16.5066 C.2     1  UNL1        0.4017
     40 O          64.0755   85.4453   16.3169 O.2     1  UNL1       -0.2264
     41 H          60.7371   84.7424   15.6021 H       1  UNL1        0.1527
     42 O          61.9744   86.0387   17.7253 O.3     1  UNL1       -0.4306
     43 C          62.7081   87.1171   18.4661 C.3     1  UNL1        0.2573
@<TRIPOS>BOND
     1    33    34    1
     2    34    27    1
     3    27    28   ar
     4    28    29   ar
     5    29    30   ar
     6    30    31   ar
     7    31    20    1
     8    20    21   ar
     9    21    22    1
    10    21    23   ar
    11    23    24   ar
    12    24    25   ar
    13    25    26   ar
    14    26     1    1
    15     1     2    1
    16     1    35    1
    17    35    36    1
    18    36    37    1
    19    37    38    1
    20    38    39   am
    21    39    40    2
    22    39    42    1
    23    42    43    1
    24     4     1    1
    25     4     5    1
    26     5     6    1
    27     6     7    1
    28     7     8    1
    29     8     9   am
    30     9    10    2
    31    12     9    1
    32    12    13    1
    33    13    14    1
    34    14    15    1
    35    15    17    1
    36    17    18    1
    37    15    16    1
    38     8    11    1
    39    31    32   ar
    40    32    27   ar
    41    26    20   ar
    42    11     4    1
    43    16    12    1
    44     2     3    1
    45    38    41    1
    46    17    19    1
@<TRIPOS>MOLECULE
*****
 43 46 0 0 0
SMALL
GASTEIGER

@<TRIPOS>ATOM
      1 C          62.6187   89.3381   10.5680 C.3     1  UNL1        0.1085
      2 O          63.6629   89.3269    9.4912 O.3     1  UNL1       -0.3826
      3 H          63.8660   90.2383    9.2283 H       1  UNL1        0.2107
      4 C          62.6547   87.8394   10.6185 C.3     1  UNL1        0.0484
      5 C          62.5019   87.0426    9.3569 C.3     1  UNL1        0.0061
      6 C          62.5380   85.5438    9.4075 C.3     1  UNL1        0.0217
      7 C          62.7268   84.8420   10.7197 C.3     1  UNL1        0.0934
      8 N          62.8796   85.6389   11.9813 N.am    1  UNL1       -0.2795
      9 C          63.0684   84.9370   13.2935 C.2     1  UNL1        0.2252
     10 O          63.2212   85.7339   14.5551 O.2     1  UNL1       -0.2749
     11 C          62.8436   87.1376   11.9307 C.3     1  UNL1        0.0960
     12 C          63.1045   83.4383   13.3440 C.3     1  UNL1        0.0781
     13 C          64.2939   82.5745   13.0458 C.3     1  UNL1        0.0105
     14 C          63.8819   81.1425   13.2191 C.3     1  UNL1        0.0162
     15 C          62.4379   81.1215   13.6245 C.3     1  UNL1        0.0545
     16 C          61.9574   82.5403   13.7017 C.3     1  UNL1        0.0248
     17 N          61.6183   79.8966   13.9036 N.3     1  UNL1       -0.2974
     18 C          60.1501   80.0243   14.1828 C.3     1  UNL1        0.0858
     19 H          62.0343   79.4430   14.7170 H       1  UNL1        0.1232
     20 C          60.1582   88.9766   11.3199 C.ar    1  UNL1        0.0088
     21 C          59.1139   88.9878   12.3966 C.ar    1  UNL1        0.0574
     22 CL         57.6977   88.6151   12.0718 Cl      1  UNL1       -0.0823
     23 C          59.4858   89.3716   13.7983 C.ar    1  UNL1        0.0114
     24 C          60.9020   89.7442   14.1231 C.ar    1  UNL1        0.0006
     25 C          61.9463   89.7331   13.0463 C.ar    1  UNL1       -0.0020
     26 C          61.5744   89.3493   11.6448 C.ar    1  UNL1        0.0026
     27 C          59.5262   89.2144    7.4092 C.ar    1  UNL1       -0.0222
     28 C          59.0425   87.8254    7.1152 C.ar    1  UNL1       -0.0043
     29 C          58.9307   86.8200    8.2228 C.ar    1  UNL1       -0.0003
     30 C          59.3026   87.2037    9.6244 C.ar    1  UNL1       -0.0000
     31 C          59.7863   88.5928    9.9183 C.ar    1  UNL1        0.0003
     32 C          59.8981   89.5982    8.8107 C.ar    1  UNL1       -0.0042
     33 C          58.4027   90.7099    5.6060 C.3     1  UNL1        0.0050
     34 C          59.6380   90.2198    6.3016 C.3     1  UNL1        0.0264
     35 C          62.5826   90.8368   10.5174 C.3     1  UNL1        0.0329
     36 C          63.7477   91.5965    9.9557 C.3     1  UNL1        0.0241
     37 C          64.6740   92.3362   10.8747 C.3     1  UNL1        0.0928
     38 N          65.4289   93.5324   10.3752 N.am    1  UNL1       -0.2707
     39 C          66.9239   93.5766   10.4882 C.2     1  UNL1        0.4017
     40 O          67.6642   92.4246   11.1006 O.2     1  UNL1       -0.2264
     41 H          64.9430   94.2884    9.9733 H       1  UNL1        0.1527
     42 O          67.6788   94.7727    9.9887 O.3     1  UNL1       -0.4306
     43 C          67.4949   95.2389    8.5748 C.3     1  UNL1        0.2573
@<TRIPOS>BOND
     1    33    34    1
     2    34    27    1
     3    27    28   ar
     4    28    29   ar
     5    29    30   ar
     6    30    31   ar
     7    31    20    1
     8    20    21   ar
     9    21    22    1
    10    21    23   ar
    11    23    24   ar
    12    24    25   ar
    13    25    26   ar
    14    26     1    1
    15     1     2    1
    16     1    35    1
    17    35    36    1
    18    36    37    1
    19    37    38    1
    20    38    39   am
    21    39    40    2
    22    39    42    1
    23    42    43    1
    24     4     1    1
    25     4     5    1
    26     5     6    1
    27     6     7    1
    28     7     8    1
    29     8     9   am
    30     9    10    2
    31    12     9    1
    32    12    13    1
    33    13    14    1
    34    14    15    1
    35    15    17    1
    36    17    18    1
    37    15    16    1
    38     8    11    1
    39    31    32   ar
    40    32    27   ar
    41    26    20   ar
    42    11     4    1
    43    16    12    1
    44     2     3    1
    45    38    41    1
    46    17    19    1
@<TRIPOS>MOLECULE
*****
 43 46 0 0 0
SMALL
GASTEIGER

@<TRIPOS>ATOM
      1 C          62.3329   87.0863   11.9800 C.3     1  UNL1        0.1085
      2 O          63.2030   86.0291   12.5924 O.3     1  UNL1       -0.3826
      3 H          62.8880   85.1531   12.3197 H       1  UNL1        0.2107
      4 C          63.1572   88.1493   12.6437 C.3     1  UNL1        0.0484
      5 C          63.6547   87.9472   14.0443 C.3     1  UNL1        0.0061
      6 C          64.4791   89.0102   14.7081 C.3     1  UNL1        0.0217
      7 C          64.8059   90.2752   13.9712 C.3     1  UNL1        0.0934
      8 N          64.3084   90.4773   12.5706 N.am    1  UNL1       -0.2795
      9 C          64.6352   91.7423   11.8338 C.2     1  UNL1        0.2252
     10 O          64.1377   91.9444   10.4332 O.2     1  UNL1       -0.2749
     11 C          63.4840   89.4143   11.9069 C.3     1  UNL1        0.0960
     12 C          65.4595   92.8053   12.4975 C.3     1  UNL1        0.0781
     13 C          65.8041   94.1447   11.9170 C.3     1  UNL1        0.0105
     14 C          66.6416   94.8827   12.9191 C.3     1  UNL1        0.0162
     15 C          66.8146   93.9993   14.1189 C.3     1  UNL1        0.0545
     16 C          66.0841   92.7154   13.8584 C.3     1  UNL1        0.0248
     17 N          67.5832   94.3400   15.3611 N.3     1  UNL1       -0.2974
     18 C          68.7283   93.4740   15.7957 C.3     1  UNL1        0.0858
     19 H          66.9123   94.3485   16.1294 H       1  UNL1        0.1232
     20 C          61.1827   88.1238    9.8941 C.ar    1  UNL1        0.0088
     21 C          60.3125   89.1810    9.2817 C.ar    1  UNL1        0.0574
     22 CL         60.0325   89.1612    7.8082 Cl      1  UNL1       -0.0823
     23 C          59.7223   90.2582   10.1428 C.ar    1  UNL1        0.0114
     24 C          60.0023   90.2780   11.6163 C.ar    1  UNL1        0.0006
     25 C          60.8725   89.2207   12.2287 C.ar    1  UNL1       -0.0020
     26 C          61.4627   88.1436   11.3676 C.ar    1  UNL1        0.0026
     27 C          61.4883   85.2036    7.2241 C.ar    1  UNL1       -0.0222
     28 C          62.9531   84.8924    7.3108 C.ar    1  UNL1       -0.0043
     29 C          63.8277   85.6583    8.2586 C.ar    1  UNL1       -0.0003
     30 C          63.2376   86.7354    9.1197 C.ar    1  UNL1       -0.0000
     31 C          61.7729   87.0466    9.0330 C.ar    1  UNL1        0.0003
     32 C          60.8982   86.2807    8.0852 C.ar    1  UNL1       -0.0042
     33 C          61.2148   83.7660    5.0774 C.3     1  UNL1        0.0050
     34 C          60.6137   84.4376    6.2763 C.3     1  UNL1        0.0264
     35 C          61.5085   86.0234   11.3162 C.3     1  UNL1        0.0329
     36 C          61.6595   84.5895   11.7300 C.3     1  UNL1        0.0241
     37 C          62.7242   83.7370   11.1060 C.3     1  UNL1        0.0928
     38 N          62.9792   82.3539   11.6278 N.am    1  UNL1       -0.2707
     39 C          63.5713   82.1646   12.9929 C.2     1  UNL1        0.4017
     40 O          63.9084   83.3584   13.8363 O.2     1  UNL1       -0.2264
     41 H          62.7579   81.5704   11.0742 H       1  UNL1        0.1527
     42 O          63.8262   80.7816   13.5146 O.3     1  UNL1       -0.4306
     43 C          62.6970   79.7997   13.6198 C.3     1  UNL1        0.2573
@<TRIPOS>BOND
     1    33    34    1
     2    34    27    1
     3    27    28   ar
     4    28    29   ar
     5    29    30   ar
     6    30    31   ar
     7    31    20    1
     8    20    21   ar
     9    21    22    1
    10    21    23   ar
    11    23    24   ar
    12    24    25   ar
    13    25    26   ar
    14    26     1    1
    15     1     2    1
    16     1    35    1
    17    35    36    1
    18    36    37    1
    19    37    38    1
    20    38    39   am
    21    39    40    2
    22    39    42    1
    23    42    43    1
    24     4     1    1
    25     4     5    1
    26     5     6    1
    27     6     7    1
    28     7     8    1
    29     8     9   am
    30     9    10    2
    31    12     9    1
    32    12    13    1
    33    13    14    1
    34    14    15    1
    35    15    17    1
    36    17    18    1
    37    15    16    1
    38     8    11    1
    39    31    32   ar
    40    32    27   ar
    41    26    20   ar
    42    11     4    1
    43    16    12    1
    44     2     3    1
    45    38    41    1
    46    17    19    1
@<TRIPOS>MOLECULE
*****
 43 46 0 0 0
SMALL
GASTEIGER

@<TRIPOS>ATOM
      1 C          62.6617   89.3045   10.4951 C.3     1  UNL1        0.1085
      2 O          63.6958   89.2672    9.4092 O.3     1  UNL1       -0.3826
      3 H          63.9075   90.1726    9.1330 H       1  UNL1        0.2107
      4 C          62.6802   87.8063   10.5643 C.3     1  UNL1        0.0484
      5 C          62.5189   86.9957    9.3125 C.3     1  UNL1        0.0061
      6 C          62.5374   85.4973    9.3817 C.3     1  UNL1        0.0217
      7 C          62.7172   84.8097   10.7026 C.3     1  UNL1        0.0934
      8 N          62.8786   85.6203   11.9544 N.am    1  UNL1       -0.2795
      9 C          63.0584   84.9326   13.2753 C.2     1  UNL1        0.2252
     10 O          63.2198   85.7432   14.5270 O.2     1  UNL1       -0.2749
     11 C          62.8601   87.1186   11.8852 C.3     1  UNL1        0.0960
     12 C          63.0769   83.4343   13.3444 C.3     1  UNL1        0.0781
     13 C          64.2424   82.5507   13.0116 C.3     1  UNL1        0.0105
     14 C          63.8189   81.1268   13.2200 C.3     1  UNL1        0.0162
     15 C          62.3918   81.1305   13.6816 C.3     1  UNL1        0.0545
     16 C          61.9332   82.5566   13.7585 C.3     1  UNL1        0.0248
     17 N          61.5679   79.9205   14.0089 N.3     1  UNL1       -0.2974
     18 C          60.0823   80.0470   14.1739 C.3     1  UNL1        0.0858
     19 H          61.9306   79.5456   14.8854 H       1  UNL1        0.1232
     20 C          60.2028   88.9888   11.2723 C.ar    1  UNL1        0.0088
     21 C          59.1687   89.0261   12.3582 C.ar    1  UNL1        0.0574
     22 CL         57.7439   88.6731   12.0495 Cl      1  UNL1       -0.0823
     23 C          59.5593   89.4164   13.7529 C.ar    1  UNL1        0.0114
     24 C          60.9841   89.7695   14.0617 C.ar    1  UNL1        0.0006
     25 C          62.0183   89.7322   12.9757 C.ar    1  UNL1       -0.0020
     26 C          61.6276   89.3418   11.5811 C.ar    1  UNL1        0.0026
     27 C          59.5253   89.2062    7.3680 C.ar    1  UNL1       -0.0222
     28 C          59.0309   87.8179    7.0884 C.ar    1  UNL1       -0.0043
     29 C          58.9272   86.8199    8.2034 C.ar    1  UNL1       -0.0003
     30 C          59.3178   87.2102    9.5980 C.ar    1  UNL1       -0.0000
     31 C          59.8122   88.5985    9.8776 C.ar    1  UNL1        0.0003
     32 C          59.9159   89.5965    8.7626 C.ar    1  UNL1       -0.0042
     33 C          58.3881   90.6975    5.5701 C.3     1  UNL1        0.0050
     34 C          59.6291   90.2042    6.2530 C.3     1  UNL1        0.0264
     35 C          62.6433   90.8028   10.4260 C.3     1  UNL1        0.0329
     36 C          63.9136   91.5780   10.6139 C.3     1  UNL1        0.0241
     37 C          64.4163   91.8703   11.9966 C.3     1  UNL1        0.0928
     38 N          65.8269   92.3389   12.1983 N.am    1  UNL1       -0.2707
     39 C          66.3342   92.6167   13.5823 C.2     1  UNL1        0.4017
     40 O          65.4310   92.4259   14.7646 O.2     1  UNL1       -0.2264
     41 H          66.4197   92.4642   11.4223 H       1  UNL1        0.1527
     42 O          67.7447   93.0854   13.7840 O.3     1  UNL1       -0.4306
     43 C          68.4568   92.7891   15.0706 C.3     1  UNL1        0.2573
@<TRIPOS>BOND
     1    33    34    1
     2    34    27    1
     3    27    28   ar
     4    28    29   ar
     5    29    30   ar
     6    30    31   ar
     7    31    20    1
     8    20    21   ar
     9    21    22    1
    10    21    23   ar
    11    23    24   ar
    12    24    25   ar
    13    25    26   ar
    14    26     1    1
    15     1     2    1
    16     1    35    1
    17    35    36    1
    18    36    37    1
    19    37    38    1
    20    38    39   am
    21    39    40    2
    22    39    42    1
    23    42    43    1
    24     4     1    1
    25     4     5    1
    26     5     6    1
    27     6     7    1
    28     7     8    1
    29     8     9   am
    30     9    10    2
    31    12     9    1
    32    12    13    1
    33    13    14    1
    34    14    15    1
    35    15    17    1
    36    17    18    1
    37    15    16    1
    38     8    11    1
    39    31    32   ar
    40    32    27   ar
    41    26    20   ar
    42    11     4    1
    43    16    12    1
    44     2     3    1
    45    38    41    1
    46    17    19    1
@<TRIPOS>MOLECULE
*****
 43 46 0 0 0
SMALL
GASTEIGER

@<TRIPOS>ATOM
      1 C          60.5402   93.2189   -1.0446 C.3     1  UNL1        0.1085
      2 O          59.6707   92.0067   -1.2005 O.3     1  UNL1       -0.3826
      3 H          60.2182   91.2075   -1.1516 H       1  UNL1        0.2107
      4 C          59.3347   94.1011   -1.1800 C.3     1  UNL1        0.0484
      5 C          59.1622   95.2804   -0.2693 C.3     1  UNL1        0.0061
      6 C          57.9566   96.1626   -0.4048 C.3     1  UNL1        0.0217
      7 C          56.9236   95.8655   -1.4510 C.3     1  UNL1        0.0934
      8 N          57.0962   94.6862   -2.3618 N.am    1  UNL1       -0.2795
      9 C          56.0631   94.3892   -3.4081 C.2     1  UNL1        0.2252
     10 O          56.2356   93.2099   -4.3189 O.2     1  UNL1       -0.2749
     11 C          58.3017   93.8040   -2.2263 C.3     1  UNL1        0.0960
     12 C          54.8576   95.2714   -3.5435 C.3     1  UNL1        0.0781
     13 C          54.5366   96.1520   -4.7147 C.3     1  UNL1        0.0105
     14 C          53.2420   96.8528   -4.4265 C.3     1  UNL1        0.0162
     15 C          52.7629   96.4053   -3.0774 C.3     1  UNL1        0.0545
     16 C          53.7614   95.4279   -2.5317 C.3     1  UNL1        0.0248
     17 N          51.5060   96.8560   -2.3940 N.3     1  UNL1       -0.2974
     18 C          50.1958   96.8025   -3.1223 C.3     1  UNL1        0.0858
     19 H          51.6516   97.8279   -2.1209 H       1  UNL1        0.1232
     20 C          62.1845   94.6404    0.3787 C.ar    1  UNL1        0.0088
     21 C          63.0541   95.8526    0.5347 C.ar    1  UNL1        0.0574
     22 CL         63.8288   96.0618    1.8020 Cl      1  UNL1       -0.0823
     23 C          63.1490   96.8556   -0.5766 C.ar    1  UNL1        0.0114
     24 C          62.3743   96.6464   -1.8439 C.ar    1  UNL1        0.0006
     25 C          61.5047   95.4341   -1.9999 C.ar    1  UNL1       -0.0020
     26 C          61.4098   94.4311   -0.8886 C.ar    1  UNL1        0.0026
     27 C          60.7207   92.4972    3.3810 C.ar    1  UNL1       -0.0222
     28 C          61.8998   91.6314    3.7126 C.ar    1  UNL1       -0.0043
     29 C          63.1738   91.7686    2.9329 C.ar    1  UNL1       -0.0003
     30 C          63.2688   92.7715    1.8216 C.ar    1  UNL1       -0.0000
     31 C          62.0896   93.6374    1.4900 C.ar    1  UNL1        0.0003
     32 C          60.8156   93.5002    2.2698 C.ar    1  UNL1       -0.0042
     33 C          59.2578   91.1984    5.0907 C.3     1  UNL1        0.0050
     34 C          59.4466   92.3600    4.1607 C.3     1  UNL1        0.0264
     35 C          61.7457   92.3366   -0.9091 C.3     1  UNL1        0.0329
     36 C          62.5354   91.9536   -2.1256 C.3     1  UNL1        0.0241
     37 C          63.3449   92.9876   -2.8504 C.3     1  UNL1        0.0928
     38 N          64.0360   92.6347   -4.1341 N.am    1  UNL1       -0.2707
     39 C          63.6882   93.3635   -5.3981 C.2     1  UNL1        0.4017
     40 O          62.6492   94.4453   -5.3786 O.2     1  UNL1       -0.2264
     41 H          64.7179   91.9246   -4.1470 H       1  UNL1        0.1527
     42 O          64.3793   93.0105   -6.6818 O.3     1  UNL1       -0.4306
     43 C          65.8446   93.2866   -6.8452 C.3     1  UNL1        0.2573
@<TRIPOS>BOND
     1    33    34    1
     2    34    27    1
     3    27    28   ar
     4    28    29   ar
     5    29    30   ar
     6    30    31   ar
     7    31    20    1
     8    20    21   ar
     9    21    22    1
    10    21    23   ar
    11    23    24   ar
    12    24    25   ar
    13    25    26   ar
    14    26     1    1
    15     1     2    1
    16     1    35    1
    17    35    36    1
    18    36    37    1
    19    37    38    1
    20    38    39   am
    21    39    40    2
    22    39    42    1
    23    42    43    1
    24     4     1    1
    25     4     5    1
    26     5     6    1
    27     6     7    1
    28     7     8    1
    29     8     9   am
    30     9    10    2
    31    12     9    1
    32    12    13    1
    33    13    14    1
    34    14    15    1
    35    15    17    1
    36    17    18    1
    37    15    16    1
    38     8    11    1
    39    31    32   ar
    40    32    27   ar
    41    26    20   ar
    42    11     4    1
    43    16    12    1
    44     2     3    1
    45    38    41    1
    46    17    19    1
@<TRIPOS>MOLECULE
*****
 43 46 0 0 0
SMALL
GASTEIGER

@<TRIPOS>ATOM
      1 C          60.5602   89.0072   12.0864 C.3     1  UNL1        0.1085
      2 O          60.4895   89.9992   13.2092 O.3     1  UNL1       -0.3826
      3 H          59.8517   89.6921   13.8723 H       1  UNL1        0.2107
      4 C          61.5814   89.8616   11.3958 C.3     1  UNL1        0.0484
      5 C          61.5368   90.0271    9.9056 C.3     1  UNL1        0.0061
      6 C          62.5581   90.8816    9.2150 C.3     1  UNL1        0.0217
      7 C          63.6239   91.5705   10.0145 C.3     1  UNL1        0.0934
      8 N          63.6686   91.4050   11.5047 N.am    1  UNL1       -0.2795
      9 C          64.7345   92.0940   12.3042 C.2     1  UNL1        0.2252
     10 O          64.7791   91.9285   13.7944 O.2     1  UNL1       -0.2749
     11 C          62.6474   90.5506   12.1953 C.3     1  UNL1        0.0960
     12 C          65.7557   92.9484   11.6136 C.3     1  UNL1        0.0781
     13 C          65.7806   94.4480   11.5908 C.3     1  UNL1        0.0105
     14 C          66.9717   94.8797   10.7876 C.3     1  UNL1        0.0162
     15 C          67.6828   93.6469   10.3140 C.3     1  UNL1        0.0545
     16 C          66.9314   92.4533   10.8245 C.3     1  UNL1        0.0248
     17 N          68.9271   93.6135    9.4769 N.3     1  UNL1       -0.2974
     18 C          69.2359   92.4075    8.6401 C.3     1  UNL1        0.0858
     19 H          69.7139   93.7394   10.1137 H       1  UNL1        0.1232
     20 C          61.5975   86.8702   11.0340 C.ar    1  UNL1        0.0088
     21 C          61.6683   85.8782    9.9111 C.ar    1  UNL1        0.0574
     22 CL         62.6348   84.7333    9.9816 Cl      1  UNL1       -0.0823
     23 C          60.7724   86.0310    8.7177 C.ar    1  UNL1        0.0114
     24 C          59.8058   87.1759    8.6472 C.ar    1  UNL1        0.0006
     25 C          59.7351   88.1679    9.7701 C.ar    1  UNL1       -0.0020
     26 C          60.6309   88.0151   10.9635 C.ar    1  UNL1        0.0026
     27 C          63.4000   85.2771   14.1904 C.ar    1  UNL1       -0.0222
     28 C          64.2850   86.4117   14.6141 C.ar    1  UNL1       -0.0043
     29 C          64.2741   87.6991   13.8444 C.ar    1  UNL1       -0.0003
     30 C          63.3783   87.8520   12.6510 C.ar    1  UNL1       -0.0000
     31 C          62.4934   86.7174   12.2274 C.ar    1  UNL1        0.0003
     32 C          62.5042   85.4300   12.9970 C.ar    1  UNL1       -0.0042
     33 C          62.6968   82.7866   14.4193 C.3     1  UNL1        0.0050
     34 C          63.4109   83.9897   14.9601 C.3     1  UNL1        0.0264
     35 C          59.5390   88.1527   12.7770 C.3     1  UNL1        0.0329
     36 C          58.7394   88.7124   13.9160 C.3     1  UNL1        0.0241
     37 C          59.2090   88.5208   15.3276 C.3     1  UNL1        0.0928
     38 N          60.5639   89.0143   15.7408 N.am    1  UNL1       -0.2707
     39 C          61.4847   88.1180   16.5145 C.2     1  UNL1        0.4017
     40 O          61.0508   86.7280   16.8750 O.2     1  UNL1       -0.2264
     41 H          60.8487   89.9265   15.5043 H       1  UNL1        0.1527
     42 O          62.8396   88.6115   16.9277 O.3     1  UNL1       -0.4306
     43 C          63.3040   89.9728   16.5018 C.3     1  UNL1        0.2573
@<TRIPOS>BOND
     1    33    34    1
     2    34    27    1
     3    27    28   ar
     4    28    29   ar
     5    29    30   ar
     6    30    31   ar
     7    31    20    1
     8    20    21   ar
     9    21    22    1
    10    21    23   ar
    11    23    24   ar
    12    24    25   ar
    13    25    26   ar
    14    26     1    1
    15     1     2    1
    16     1    35    1
    17    35    36    1
    18    36    37    1
    19    37    38    1
    20    38    39   am
    21    39    40    2
    22    39    42    1
    23    42    43    1
    24     4     1    1
    25     4     5    1
    26     5     6    1
    27     6     7    1
    28     7     8    1
    29     8     9   am
    30     9    10    2
    31    12     9    1
    32    12    13    1
    33    13    14    1
    34    14    15    1
    35    15    17    1
    36    17    18    1
    37    15    16    1
    38     8    11    1
    39    31    32   ar
    40    32    27   ar
    41    26    20   ar
    42    11     4    1
    43    16    12    1
    44     2     3    1
    45    38    41    1
    46    17    19    1
