@<TRIPOS>MOLECULE
*****
 31 35 0 0 0
SMALL
GASTEIGER

@<TRIPOS>ATOM
      1 C          60.8426   86.5879   10.7362 C.3     1  UNL1        0.0005
      2 C          61.7225   87.7020   11.2205 C.3     1  UNL1        0.0089
      3 C          61.4276   89.1178   10.8225 C.3     1  UNL1        0.0219
      4 C          62.3076   90.2319   11.3068 C.3     1  UNL1        0.0922
      5 N          63.4825   89.9301   12.1891 N.pl3   1  UNL1       -0.2929
      6 C          63.7775   88.5142   12.5872 C.3     1  UNL1        0.0980
      7 C          62.8975   87.4002   12.1029 C.3     1  UNL1        0.0603
      8 C          63.1924   85.9843   12.5009 C.ar    1  UNL1        0.0662
      9 C          63.2386   84.9064   11.4588 C.ar    1  UNL1        0.0353
     10 C          63.5335   83.4907   11.8567 C.ar    1  UNL1        0.1292
     11 N          63.7822   83.1526   13.2969 N.ar    1  UNL1       -0.2087
     12 C          63.7360   84.2305   14.3390 C.ar    1  UNL1        0.2541
     13 N          63.9383   84.1992   15.8249 N.ar    1  UNL1       -0.1862
     14 C          63.7684   85.5958   16.3453 C.ar    1  UNL1        0.2226
     15 N          63.4611   86.4902   15.1810 N.ar    1  UNL1       -0.1400
     16 N          63.4411   85.6464   13.9410 N.ar    1  UNL1       -0.1990
     17 C          63.5797   82.4127   10.8145 C.3     1  UNL1        0.3583
     18 F          62.7998   81.1465   11.0101 F       1  UNL1       -0.1915
     19 F          64.4059   82.6011    9.5768 F       1  UNL1       -0.1915
     20 C          64.3625   91.0441   12.6734 C.ar    1  UNL1        0.1317
     21 C          64.8986   92.0530   11.7014 C.ar    1  UNL1        0.0343
     22 C          65.7787   93.1671   12.1858 C.ar    1  UNL1        0.0043
     23 C          66.1225   93.2721   13.6420 C.ar    1  UNL1        0.0208
     24 C          65.5864   92.2632   14.6140 C.ar    1  UNL1        0.1003
     25 N          64.7064   91.1492   14.1296 N.ar    1  UNL1       -0.2292
     26 C          66.3148   94.1760   11.2138 C.ar    1  UNL1        0.0001
     27 C          66.1252   95.6413   11.4728 C.ar    1  UNL1        0.0000
     28 C          66.6613   96.6501   10.5008 C.ar    1  UNL1        0.0000
     29 C          67.3870   96.1937    9.2698 C.ar    1  UNL1        0.0000
     30 C          67.5765   94.7285    9.0109 C.ar    1  UNL1        0.0000
     31 C          67.0404   93.7196    9.9829 C.ar    1  UNL1        0.0000
@<TRIPOS>BOND
     1     2     1    1
     2     2     3    1
     3     3     4    1
     4     4     5    1
     5     5    20    1
     6    20    21   ar
     7    21    22   ar
     8    22    26    1
     9    26    27   ar
    10    27    28   ar
    11    28    29   ar
    12    29    30   ar
    13    30    31   ar
    14    22    23   ar
    15    23    24   ar
    16    24    25   ar
    17     5     6    1
    18     6     7    1
    19     7     8    1
    20     8     9   ar
    21     9    10   ar
    22    10    17    1
    23    17    18    1
    24    17    19    1
    25    10    11   ar
    26    11    12   ar
    27    12    13   ar
    28    13    14   ar
    29    14    15   ar
    30    15    16   ar
    31     7     2    1
    32    16     8   ar
    33    25    20   ar
    34    16    12   ar
    35    31    26   ar
@<TRIPOS>MOLECULE
*****
 31 35 0 0 0
SMALL
GASTEIGER

@<TRIPOS>ATOM
      1 C          63.0114   91.6112   10.0180 C.3     1  UNL1        0.0005
      2 C          63.1268   90.4105   10.9097 C.3     1  UNL1        0.0089
      3 C          62.2883   89.1956   10.6441 C.3     1  UNL1        0.0219
      4 C          62.4037   87.9949   11.5358 C.3     1  UNL1        0.0922
      5 N          63.3578   88.0094   12.6932 N.pl3   1  UNL1       -0.2929
      6 C          64.1964   89.2244   12.9589 C.3     1  UNL1        0.0980
      7 C          64.0809   90.4250   12.0671 C.3     1  UNL1        0.0603
      8 C          64.9194   91.6400   12.3328 C.ar    1  UNL1        0.0662
      9 C          65.4339   92.4611   11.1878 C.ar    1  UNL1        0.0353
     10 C          66.2724   93.6761   11.4533 C.ar    1  UNL1        0.1292
     11 N          66.5965   94.0701   12.8640 N.ar    1  UNL1       -0.2087
     12 C          66.0821   93.2489   14.0090 C.ar    1  UNL1        0.2541
     13 N          66.2366   93.3899   15.4943 N.ar    1  UNL1       -0.1862
     14 C          65.4936   92.2619   16.1467 C.ar    1  UNL1        0.2226
     15 N          64.8798   91.4239   15.0646 N.ar    1  UNL1       -0.1400
     16 N          65.2435   92.0339   13.7434 N.ar    1  UNL1       -0.1990
     17 C          66.7869   94.4973   10.3082 C.3     1  UNL1        0.3583
     18 F          67.0163   93.8584    8.9706 F       1  UNL1       -0.1915
     19 F          67.0721   95.9572   10.5008 F       1  UNL1       -0.1915
     20 C          63.4733   86.8088   13.5850 C.ar    1  UNL1        0.1317
     21 C          63.1990   85.4391   13.0382 C.ar    1  UNL1        0.0343
     22 C          63.3145   84.2385   13.9300 C.ar    1  UNL1        0.0043
     23 C          63.7043   84.4077   15.3685 C.ar    1  UNL1        0.0208
     24 C          63.9786   85.7772   15.9153 C.ar    1  UNL1        0.1003
     25 N          63.8631   86.9778   15.0236 N.ar    1  UNL1       -0.2292
     26 C          63.0402   82.8690   13.3832 C.ar    1  UNL1        0.0001
     27 C          63.4742   82.5164   11.9913 C.ar    1  UNL1        0.0000
     28 C          63.2000   81.1468   11.4445 C.ar    1  UNL1        0.0000
     29 C          62.4916   80.1298   12.2897 C.ar    1  UNL1        0.0000
     30 C          62.0577   80.4825   13.6815 C.ar    1  UNL1        0.0000
     31 C          62.3320   81.8520   14.2283 C.ar    1  UNL1        0.0000
@<TRIPOS>BOND
     1     2     1    1
     2     2     3    1
     3     3     4    1
     4     4     5    1
     5     5    20    1
     6    20    21   ar
     7    21    22   ar
     8    22    26    1
     9    26    27   ar
    10    27    28   ar
    11    28    29   ar
    12    29    30   ar
    13    30    31   ar
    14    22    23   ar
    15    23    24   ar
    16    24    25   ar
    17     5     6    1
    18     6     7    1
    19     7     8    1
    20     8     9   ar
    21     9    10   ar
    22    10    17    1
    23    17    18    1
    24    17    19    1
    25    10    11   ar
    26    11    12   ar
    27    12    13   ar
    28    13    14   ar
    29    14    15   ar
    30    15    16   ar
    31     7     2    1
    32    16     8   ar
    33    25    20   ar
    34    16    12   ar
    35    31    26   ar
@<TRIPOS>MOLECULE
*****
 31 35 0 0 0
SMALL
GASTEIGER

@<TRIPOS>ATOM
      1 C          59.9674   87.4943   10.5316 C.3     1  UNL1        0.0005
      2 C          61.0177   88.4578   10.9991 C.3     1  UNL1        0.0089
      3 C          60.7589   89.9342   10.9440 C.3     1  UNL1        0.0219
      4 C          61.8093   90.8977   11.4114 C.3     1  UNL1        0.0922
      5 N          63.1184   90.3847   11.9340 N.pl3   1  UNL1       -0.2929
      6 C          63.3772   88.9082   11.9891 C.3     1  UNL1        0.0980
      7 C          62.3268   87.9447   11.5217 C.3     1  UNL1        0.0603
      8 C          62.5855   86.4682   11.5768 C.ar    1  UNL1        0.0662
      9 C          62.6306   85.7636   12.9002 C.ar    1  UNL1        0.0353
     10 C          62.8893   84.2872   12.9553 C.ar    1  UNL1        0.1292
     11 N          63.1029   83.5152   11.6870 N.ar    1  UNL1       -0.2087
     12 C          63.0579   84.2199   10.3636 C.ar    1  UNL1        0.2541
     13 N          63.2304   83.7266    8.9576 N.ar    1  UNL1       -0.1862
     14 C          63.0783   84.8983    8.0335 C.ar    1  UNL1        0.2226
     15 N          62.8118   86.1157    8.8684 N.ar    1  UNL1       -0.1400
     16 N          62.7992   85.6964   10.3085 N.ar    1  UNL1       -0.1990
     17 C          62.9343   83.5825   14.2788 C.3     1  UNL1        0.3583
     18 F          64.0073   83.9190   15.2716 F       1  UNL1       -0.1915
     19 F          61.9064   82.5413   14.6096 F       1  UNL1       -0.1915
     20 C          64.1687   91.3481   12.4015 C.ar    1  UNL1        0.1317
     21 C          64.7341   92.3609   11.4503 C.ar    1  UNL1        0.0343
     22 C          65.7845   93.3244   11.9178 C.ar    1  UNL1        0.0043
     23 C          66.2694   93.2750   13.3364 C.ar    1  UNL1        0.0208
     24 C          65.7040   92.2622   14.2875 C.ar    1  UNL1        0.1003
     25 N          64.6537   91.2988   13.8200 N.ar    1  UNL1       -0.2292
     26 C          66.3499   94.3371   10.9667 C.ar    1  UNL1        0.0001
     27 C          66.1493   95.8013   11.2237 C.ar    1  UNL1        0.0000
     28 C          66.7147   96.8140   10.2725 C.ar    1  UNL1        0.0000
     29 C          67.4807   96.3625    9.0644 C.ar    1  UNL1        0.0000
     30 C          67.6813   94.8985    8.8075 C.ar    1  UNL1        0.0000
     31 C          67.1159   93.8857    9.7586 C.ar    1  UNL1        0.0000
@<TRIPOS>BOND
     1     2     1    1
     2     2     3    1
     3     3     4    1
     4     4     5    1
     5     5    20    1
     6    20    21   ar
     7    21    22   ar
     8    22    26    1
     9    26    27   ar
    10    27    28   ar
    11    28    29   ar
    12    29    30   ar
    13    30    31   ar
    14    22    23   ar
    15    23    24   ar
    16    24    25   ar
    17     5     6    1
    18     6     7    1
    19     7     8    1
    20     8     9   ar
    21     9    10   ar
    22    10    17    1
    23    17    18    1
    24    17    19    1
    25    10    11   ar
    26    11    12   ar
    27    12    13   ar
    28    13    14   ar
    29    14    15   ar
    30    15    16   ar
    31     7     2    1
    32    16     8   ar
    33    25    20   ar
    34    16    12   ar
    35    31    26   ar
@<TRIPOS>MOLECULE
*****
 31 35 0 0 0
SMALL
GASTEIGER

@<TRIPOS>ATOM
      1 C          60.4281   91.2523   11.5505 C.3     1  UNL1        0.0005
      2 C          60.9320   89.8704   11.2561 C.3     1  UNL1        0.0089
      3 C          60.0260   88.8630   10.6126 C.3     1  UNL1        0.0219
      4 C          60.5299   87.4811   10.3183 C.3     1  UNL1        0.0922
      5 N          61.9399   87.1068   10.6675 N.pl3   1  UNL1       -0.2929
      6 C          62.8459   88.1143   11.3111 C.3     1  UNL1        0.0980
      7 C          62.3420   89.4961   11.6054 C.3     1  UNL1        0.0603
      8 C          63.2480   90.5036   12.2489 C.ar    1  UNL1        0.0662
      9 C          64.0143   91.4737   11.3994 C.ar    1  UNL1        0.0353
     10 C          64.9202   92.4812   12.0428 C.ar    1  UNL1        0.1292
     11 N          65.0600   92.5186   13.5359 N.ar    1  UNL1       -0.2087
     12 C          64.2937   91.5485   14.3854 C.ar    1  UNL1        0.2541
     13 N          64.2296   91.3477   15.8705 N.ar    1  UNL1       -0.1862
     14 C          63.2840   90.2161   16.1448 C.ar    1  UNL1        0.2226
     15 N          62.7637   89.7175   14.8293 N.ar    1  UNL1       -0.1400
     16 N          63.3877   90.5410   13.7419 N.ar    1  UNL1       -0.1990
     17 C          65.6865   93.4514   11.1933 C.3     1  UNL1        0.3583
     18 F          65.9203   94.8513   11.6786 F       1  UNL1       -0.1915
     19 F          66.2190   93.0216    9.8585 F       1  UNL1       -0.1915
     20 C          62.4438   85.7250   10.3732 C.ar    1  UNL1        0.1317
     21 C          62.2616   84.6296   11.3817 C.ar    1  UNL1        0.0343
     22 C          62.7656   83.2477   11.0874 C.ar    1  UNL1        0.0043
     23 C          63.4517   82.9614    9.7846 C.ar    1  UNL1        0.0208
     24 C          63.6339   84.0567    8.7762 C.ar    1  UNL1        0.1003
     25 N          63.1299   85.4385    9.0705 N.ar    1  UNL1       -0.2292
     26 C          62.5834   82.1524   12.0958 C.ar    1  UNL1        0.0001
     27 C          62.1870   82.4870   13.5033 C.ar    1  UNL1        0.0000
     28 C          62.0048   81.3917   14.5117 C.ar    1  UNL1        0.0000
     29 C          62.2191   79.9617   14.1127 C.ar    1  UNL1        0.0000
     30 C          62.6154   79.6270   12.7053 C.ar    1  UNL1        0.0000
     31 C          62.7976   80.7224   11.6969 C.ar    1  UNL1        0.0000
@<TRIPOS>BOND
     1     2     1    1
     2     2     3    1
     3     3     4    1
     4     4     5    1
     5     5    20    1
     6    20    21   ar
     7    21    22   ar
     8    22    26    1
     9    26    27   ar
    10    27    28   ar
    11    28    29   ar
    12    29    30   ar
    13    30    31   ar
    14    22    23   ar
    15    23    24   ar
    16    24    25   ar
    17     5     6    1
    18     6     7    1
    19     7     8    1
    20     8     9   ar
    21     9    10   ar
    22    10    17    1
    23    17    18    1
    24    17    19    1
    25    10    11   ar
    26    11    12   ar
    27    12    13   ar
    28    13    14   ar
    29    14    15   ar
    30    15    16   ar
    31     7     2    1
    32    16     8   ar
    33    25    20   ar
    34    16    12   ar
    35    31    26   ar
@<TRIPOS>MOLECULE
*****
 31 35 0 0 0
SMALL
GASTEIGER

@<TRIPOS>ATOM
      1 C          62.2432   90.3720   10.0883 C.3     1  UNL1        0.0005
      2 C          62.3892   89.0471   10.7763 C.3     1  UNL1        0.0089
      3 C          61.7556   87.8220   10.1870 C.3     1  UNL1        0.0219
      4 C          61.9017   86.4971   10.8751 C.3     1  UNL1        0.0922
      5 N          62.6814   86.3975   12.1526 N.pl3   1  UNL1       -0.2929
      6 C          63.3152   87.6227   12.7421 C.3     1  UNL1        0.0980
      7 C          63.1690   88.9475   12.0539 C.3     1  UNL1        0.0603
      8 C          63.8027   90.1727   12.6432 C.ar    1  UNL1        0.0662
      9 C          64.5331   91.1389   11.7583 C.ar    1  UNL1        0.0353
     10 C          65.1667   92.3640   12.3476 C.ar    1  UNL1        0.1292
     11 N          65.0700   92.6232   13.8219 N.ar    1  UNL1       -0.2087
     12 C          64.3397   91.6570   14.7069 C.ar    1  UNL1        0.2541
     13 N          64.0814   91.6474   16.1844 N.ar    1  UNL1       -0.1862
     14 C          63.2881   90.4163   16.5083 C.ar    1  UNL1        0.2226
     15 N          63.0561   89.6650   15.2309 N.ar    1  UNL1       -0.1400
     16 N          63.7060   90.4318   14.1175 N.ar    1  UNL1       -0.1990
     17 C          65.8971   93.3302   11.4626 C.3     1  UNL1        0.3583
     18 F          66.3076   92.9179   10.0800 F       1  UNL1       -0.1915
     19 F          66.2169   94.7087   11.9602 F       1  UNL1       -0.1915
     20 C          62.8276   85.0728   12.8408 C.ar    1  UNL1        0.1317
     21 C          62.7750   83.8034   12.0431 C.ar    1  UNL1        0.0343
     22 C          62.9211   82.4786   12.7314 C.ar    1  UNL1        0.0043
     23 C          63.1198   82.4232   14.2171 C.ar    1  UNL1        0.0208
     24 C          63.1723   83.6924   15.0147 C.ar    1  UNL1        0.1003
     25 N          63.0262   85.0172   14.3265 N.ar    1  UNL1       -0.2292
     26 C          62.8685   81.2093   11.9338 C.ar    1  UNL1        0.0001
     27 C          62.5450   79.9107   12.6112 C.ar    1  UNL1        0.0000
     28 C          62.4925   78.6414   11.8136 C.ar    1  UNL1        0.0000
     29 C          62.7634   78.6709   10.3385 C.ar    1  UNL1        0.0000
     30 C          63.0869   79.9694    9.6612 C.ar    1  UNL1        0.0000
     31 C          63.1395   81.2387   10.4588 C.ar    1  UNL1        0.0000
@<TRIPOS>BOND
     1     2     1    1
     2     2     3    1
     3     3     4    1
     4     4     5    1
     5     5    20    1
     6    20    21   ar
     7    21    22   ar
     8    22    26    1
     9    26    27   ar
    10    27    28   ar
    11    28    29   ar
    12    29    30   ar
    13    30    31   ar
    14    22    23   ar
    15    23    24   ar
    16    24    25   ar
    17     5     6    1
    18     6     7    1
    19     7     8    1
    20     8     9   ar
    21     9    10   ar
    22    10    17    1
    23    17    18    1
    24    17    19    1
    25    10    11   ar
    26    11    12   ar
    27    12    13   ar
    28    13    14   ar
    29    14    15   ar
    30    15    16   ar
    31     7     2    1
    32    16     8   ar
    33    25    20   ar
    34    16    12   ar
    35    31    26   ar
@<TRIPOS>MOLECULE
*****
 31 35 0 0 0
SMALL
GASTEIGER

@<TRIPOS>ATOM
      1 C          60.6038   91.3437   11.5747 C.3     1  UNL1        0.0005
      2 C          61.0726   89.9519   11.2697 C.3     1  UNL1        0.0089
      3 C          60.2188   89.0373   10.4424 C.3     1  UNL1        0.0219
      4 C          60.6877   87.6455   10.1374 C.3     1  UNL1        0.0922
      5 N          62.0103   87.1683   10.6599 N.pl3   1  UNL1       -0.2929
      6 C          62.8641   88.0828   11.4873 C.3     1  UNL1        0.0980
      7 C          62.3952   89.4747   11.7922 C.3     1  UNL1        0.0603
      8 C          63.2490   90.3893   12.6196 C.ar    1  UNL1        0.0662
      9 C          63.2076   90.3037   14.1166 C.ar    1  UNL1        0.0353
     10 C          64.0613   91.2183   14.9440 C.ar    1  UNL1        0.1292
     11 N          64.9565   92.2185   14.2744 N.ar    1  UNL1       -0.2087
     12 C          64.9979   92.3041   12.7775 C.ar    1  UNL1        0.2541
     13 N          65.7759   93.1830   11.8436 N.ar    1  UNL1       -0.1862
     14 C          65.4030   92.8115   10.4389 C.ar    1  UNL1        0.2226
     15 N          64.3945   91.7031   10.5047 N.ar    1  UNL1       -0.1400
     16 N          64.1441   91.3895   11.9501 N.ar    1  UNL1       -0.1990
     17 C          64.0199   91.1327   16.4410 C.3     1  UNL1        0.3583
     18 F          64.6152   92.2306   17.2718 F       1  UNL1       -0.1915
     19 F          63.3831   89.9492   17.1073 F       1  UNL1       -0.1915
     20 C          62.4791   85.7764   10.3549 C.ar    1  UNL1        0.1317
     21 C          62.3080   84.6875   11.3724 C.ar    1  UNL1        0.0343
     22 C          62.7769   83.2957   11.0674 C.ar    1  UNL1        0.0043
     23 C          63.4168   82.9928    9.7450 C.ar    1  UNL1        0.0208
     24 C          63.5880   84.0816    8.7276 C.ar    1  UNL1        0.1003
     25 N          63.1191   85.4734    9.0326 N.ar    1  UNL1       -0.2292
     26 C          62.6058   82.2069   12.0848 C.ar    1  UNL1        0.0001
     27 C          62.7996   80.7731   11.6888 C.ar    1  UNL1        0.0000
     28 C          62.6285   79.6843   12.7062 C.ar    1  UNL1        0.0000
     29 C          62.2635   80.0293   14.1197 C.ar    1  UNL1        0.0000
     30 C          62.0696   81.4630   14.5156 C.ar    1  UNL1        0.0000
     31 C          62.2407   82.5518   13.4982 C.ar    1  UNL1        0.0000
@<TRIPOS>BOND
     1     2     1    1
     2     2     3    1
     3     3     4    1
     4     4     5    1
     5     5    20    1
     6    20    21   ar
     7    21    22   ar
     8    22    26    1
     9    26    27   ar
    10    27    28   ar
    11    28    29   ar
    12    29    30   ar
    13    30    31   ar
    14    22    23   ar
    15    23    24   ar
    16    24    25   ar
    17     5     6    1
    18     6     7    1
    19     7     8    1
    20     8     9   ar
    21     9    10   ar
    22    10    17    1
    23    17    18    1
    24    17    19    1
    25    10    11   ar
    26    11    12   ar
    27    12    13   ar
    28    13    14   ar
    29    14    15   ar
    30    15    16   ar
    31     7     2    1
    32    16     8   ar
    33    25    20   ar
    34    16    12   ar
    35    31    26   ar
@<TRIPOS>MOLECULE
*****
 31 35 0 0 0
SMALL
GASTEIGER

@<TRIPOS>ATOM
      1 C          63.4076   82.3753   10.0308 C.3     1  UNL1        0.0005
      2 C          63.1042   83.8431   10.0901 C.3     1  UNL1        0.0089
      3 C          63.1628   84.6722    8.8415 C.3     1  UNL1        0.0219
      4 C          62.8594   86.1400    8.9009 C.3     1  UNL1        0.0922
      5 N          62.4975   86.7787   10.2089 N.pl3   1  UNL1       -0.2929
      6 C          62.4389   85.9496   11.4577 C.3     1  UNL1        0.0980
      7 C          62.7423   84.4819   11.3983 C.3     1  UNL1        0.0603
      8 C          62.6838   83.6527   12.6469 C.ar    1  UNL1        0.0662
      9 C          62.1531   82.2509   12.5922 C.ar    1  UNL1        0.0353
     10 C          62.0945   81.4218   13.8407 C.ar    1  UNL1        0.1292
     11 N          62.5667   81.9945   15.1443 N.ar    1  UNL1       -0.2087
     12 C          63.0975   83.3964   15.1990 C.ar    1  UNL1        0.2541
     13 N          63.6301   84.2244   16.3307 N.ar    1  UNL1       -0.1862
     14 C          64.0178   85.5653   15.7814 C.ar    1  UNL1        0.2226
     15 N          63.7248   85.5660   14.3103 N.ar    1  UNL1       -0.1400
     16 N          63.1560   84.2255   13.9503 N.ar    1  UNL1       -0.1990
     17 C          61.5637   80.0198   13.7859 C.3     1  UNL1        0.3583
     18 F          62.4665   78.8913   13.3840 F       1  UNL1       -0.1915
     19 F          60.1303   79.7464   14.1331 F       1  UNL1       -0.1915
     20 C          62.1941   88.2465   10.2684 C.ar    1  UNL1        0.1317
     21 C          63.2410   89.2101   10.7434 C.ar    1  UNL1        0.0343
     22 C          62.9376   90.6780   10.8028 C.ar    1  UNL1        0.0043
     23 C          61.5874   91.1821   10.3872 C.ar    1  UNL1        0.0208
     24 C          60.5405   90.2185    9.9122 C.ar    1  UNL1        0.1003
     25 N          60.8439   88.7507    9.8528 N.ar    1  UNL1       -0.2292
     26 C          63.9844   91.6416   11.2778 C.ar    1  UNL1        0.0001
     27 C          64.5471   92.6629   10.3342 C.ar    1  UNL1        0.0000
     28 C          65.5939   93.6265   10.8092 C.ar    1  UNL1        0.0000
     29 C          66.0781   93.5686   12.2278 C.ar    1  UNL1        0.0000
     30 C          65.5154   92.5473   13.1713 C.ar    1  UNL1        0.0000
     31 C          64.4686   91.5838   12.6963 C.ar    1  UNL1        0.0000
@<TRIPOS>BOND
     1     2     1    1
     2     2     3    1
     3     3     4    1
     4     4     5    1
     5     5    20    1
     6    20    21   ar
     7    21    22   ar
     8    22    26    1
     9    26    27   ar
    10    27    28   ar
    11    28    29   ar
    12    29    30   ar
    13    30    31   ar
    14    22    23   ar
    15    23    24   ar
    16    24    25   ar
    17     5     6    1
    18     6     7    1
    19     7     8    1
    20     8     9   ar
    21     9    10   ar
    22    10    17    1
    23    17    18    1
    24    17    19    1
    25    10    11   ar
    26    11    12   ar
    27    12    13   ar
    28    13    14   ar
    29    14    15   ar
    30    15    16   ar
    31     7     2    1
    32    16     8   ar
    33    25    20   ar
    34    16    12   ar
    35    31    26   ar
@<TRIPOS>MOLECULE
*****
 31 35 0 0 0
SMALL
GASTEIGER

@<TRIPOS>ATOM
      1 C          63.0746   91.5710   10.6409 C.3     1  UNL1        0.0005
      2 C          63.1632   90.2442   11.3350 C.3     1  UNL1        0.0089
      3 C          62.3364   89.0891   10.8535 C.3     1  UNL1        0.0219
      4 C          62.4251   87.7623   11.5477 C.3     1  UNL1        0.0922
      5 N          63.3407   87.5908   12.7234 N.pl3   1  UNL1       -0.2929
      6 C          64.1675   88.7459   13.2050 C.3     1  UNL1        0.0980
      7 C          64.0788   90.0727   12.5108 C.3     1  UNL1        0.0603
      8 C          64.9056   91.2279   12.9924 C.ar    1  UNL1        0.0662
      9 C          65.1501   91.4148   14.4604 C.ar    1  UNL1        0.0353
     10 C          65.9769   92.5699   14.9420 C.ar    1  UNL1        0.1292
     11 N          66.5593   93.5383   13.9554 N.ar    1  UNL1       -0.2087
     12 C          66.3148   93.3514   12.4873 C.ar    1  UNL1        0.2541
     13 N          66.7558   94.1374   11.2884 N.ar    1  UNL1       -0.1862
     14 C          66.2016   93.4680   10.0658 C.ar    1  UNL1        0.2226
     15 N          65.4180   92.2683   10.5092 N.ar    1  UNL1       -0.1400
     16 N          65.4880   92.1962   12.0058 N.ar    1  UNL1       -0.1990
     17 C          66.2214   92.7568   16.4101 C.3     1  UNL1        0.3583
     18 F          65.0657   92.7788   17.3661 F       1  UNL1       -0.1915
     19 F          67.6216   92.9218   16.9223 F       1  UNL1       -0.1915
     20 C          63.4294   86.2640   13.4176 C.ar    1  UNL1        0.1317
     21 C          63.2648   84.9953   12.6344 C.ar    1  UNL1        0.0343
     22 C          63.3535   83.6685   13.3287 C.ar    1  UNL1        0.0043
     23 C          63.6068   83.6106   14.8060 C.ar    1  UNL1        0.0208
     24 C          63.7714   84.8793   15.5891 C.ar    1  UNL1        0.1003
     25 N          63.6827   86.2060   14.8949 N.ar    1  UNL1       -0.2292
     26 C          63.1889   82.3998   12.5456 C.ar    1  UNL1        0.0001
     27 C          62.7079   81.1539   13.2285 C.ar    1  UNL1        0.0000
     28 C          62.5433   79.8852   12.4454 C.ar    1  UNL1        0.0000
     29 C          62.8598   79.8625   10.9793 C.ar    1  UNL1        0.0000
     30 C          63.3408   81.1083   10.2964 C.ar    1  UNL1        0.0000
     31 C          63.5054   82.3770   11.0796 C.ar    1  UNL1        0.0000
@<TRIPOS>BOND
     1     2     1    1
     2     2     3    1
     3     3     4    1
     4     4     5    1
     5     5    20    1
     6    20    21   ar
     7    21    22   ar
     8    22    26    1
     9    26    27   ar
    10    27    28   ar
    11    28    29   ar
    12    29    30   ar
    13    30    31   ar
    14    22    23   ar
    15    23    24   ar
    16    24    25   ar
    17     5     6    1
    18     6     7    1
    19     7     8    1
    20     8     9   ar
    21     9    10   ar
    22    10    17    1
    23    17    18    1
    24    17    19    1
    25    10    11   ar
    26    11    12   ar
    27    12    13   ar
    28    13    14   ar
    29    14    15   ar
    30    15    16   ar
    31     7     2    1
    32    16     8   ar
    33    25    20   ar
    34    16    12   ar
    35    31    26   ar
@<TRIPOS>MOLECULE
*****
 31 35 0 0 0
SMALL
GASTEIGER

@<TRIPOS>ATOM
      1 C          59.6254   87.4950   10.6058 C.3     1  UNL1        0.0005
      2 C          60.7199   88.5054   10.7824 C.3     1  UNL1        0.0089
      3 C          60.4251   89.9669   10.6186 C.3     1  UNL1        0.0219
      4 C          61.5197   90.9773   10.7952 C.3     1  UNL1        0.0922
      5 N          62.9091   90.5259   11.1355 N.pl3   1  UNL1       -0.2929
      6 C          63.2040   89.0643   11.2993 C.3     1  UNL1        0.0980
      7 C          62.1094   88.0540   11.1227 C.3     1  UNL1        0.0603
      8 C          62.4041   86.5924   11.2865 C.ar    1  UNL1        0.0662
      9 C          62.4303   85.9814   12.6561 C.ar    1  UNL1        0.0353
     10 C          62.7250   84.5199   12.8199 C.ar    1  UNL1        0.1292
     11 N          62.9937   83.6692   11.6140 N.ar    1  UNL1       -0.2087
     12 C          62.9675   84.2801   10.2443 C.ar    1  UNL1        0.2541
     13 N          63.1918   83.6968    8.8807 N.ar    1  UNL1       -0.1862
     14 C          63.0356   84.7980    7.8742 C.ar    1  UNL1        0.2226
     15 N          62.7149   86.0618    8.6157 N.ar    1  UNL1       -0.1400
     16 N          62.6728   85.7418   10.0806 N.ar    1  UNL1       -0.1990
     17 C          62.7511   83.9089   14.1897 C.3     1  UNL1        0.3583
     18 F          63.5948   82.6972   14.4545 F       1  UNL1       -0.1915
     19 F          61.9336   84.5097   15.2946 F       1  UNL1       -0.1915
     20 C          64.0038   91.5361   11.3121 C.ar    1  UNL1        0.1317
     21 C          64.8458   91.5204   12.5534 C.ar    1  UNL1        0.0343
     22 C          65.9405   92.5307   12.7299 C.ar    1  UNL1        0.0043
     23 C          66.1930   93.5566   11.6652 C.ar    1  UNL1        0.0208
     24 C          65.3510   93.5724   10.4239 C.ar    1  UNL1        0.1003
     25 N          64.2564   92.5621   10.2474 N.ar    1  UNL1       -0.2292
     26 C          66.7825   92.5150   13.9712 C.ar    1  UNL1        0.0001
     27 C          68.2644   92.3057   13.8696 C.ar    1  UNL1        0.0000
     28 C          69.1064   92.2899   15.1109 C.ar    1  UNL1        0.0000
     29 C          68.4665   92.4835   16.4537 C.ar    1  UNL1        0.0000
     30 C          66.9847   92.6928   16.5552 C.ar    1  UNL1        0.0000
     31 C          66.1427   92.7085   15.3140 C.ar    1  UNL1        0.0000
@<TRIPOS>BOND
     1     2     1    1
     2     2     3    1
     3     3     4    1
     4     4     5    1
     5     5    20    1
     6    20    21   ar
     7    21    22   ar
     8    22    26    1
     9    26    27   ar
    10    27    28   ar
    11    28    29   ar
    12    29    30   ar
    13    30    31   ar
    14    22    23   ar
    15    23    24   ar
    16    24    25   ar
    17     5     6    1
    18     6     7    1
    19     7     8    1
    20     8     9   ar
    21     9    10   ar
    22    10    17    1
    23    17    18    1
    24    17    19    1
    25    10    11   ar
    26    11    12   ar
    27    12    13   ar
    28    13    14   ar
    29    14    15   ar
    30    15    16   ar
    31     7     2    1
    32    16     8   ar
    33    25    20   ar
    34    16    12   ar
    35    31    26   ar
