@<TRIPOS>MOLECULE
*****
 26 28 0 0 0
SMALL
GASTEIGER

@<TRIPOS>ATOM
      1 C          65.1899   91.1983   13.6484 C.3     1  UNL1        0.2337
      2 N          65.6985   92.0412   12.5166 N.ar    1  UNL1       -0.2923
      3 C          66.9466   92.8574   12.3552 C.ar    1  UNL1        0.1796
      4 N          66.9143   93.4894   10.9952 N.ar    1  UNL1       -0.2226
      5 C          65.6464   93.0637   10.3162 C.ar    1  UNL1        0.1148
      6 C          64.8949   92.1687   11.2565 C.ar    1  UNL1        0.0770
      7 C          63.5828   91.4533   11.1280 C.3     1  UNL1        0.1410
      8 N          63.0742   90.6104   12.2598 N.3     1  UNL1       -0.1473
      9 S          63.8777   90.4829   13.5199 S.O2    1  UNL1        0.0628
     10 O          62.7029   89.6189   13.8716 O.2     1  UNL1       -0.1555
     11 O          64.2733   90.0553   14.9022 O.2     1  UNL1       -0.1555
     12 C          65.9935   91.0707   14.9086 C.3     1  UNL1        0.0490
     13 C          67.3692   93.0469   15.8841 C.3     1  UNL1        0.0001
     14 C          66.1079   92.2359   15.8463 C.3     1  UNL1        0.0037
     15 C          64.9612   92.5900   16.7461 C.3     1  UNL1        0.0001
     16 C          61.7620   89.8950   12.1313 C.3     1  UNL1        0.1222
     17 C          61.5622   88.8850   11.0404 C.ar    1  UNL1       -0.0045
     18 C          60.6190   89.1772    9.9112 C.ar    1  UNL1       -0.0029
     19 C          60.4191   88.1672    8.8204 C.ar    1  UNL1        0.0036
     20 C          61.1627   86.8649    8.8587 C.ar    1  UNL1        0.0714
     21 C          62.1058   86.5727    9.9877 C.ar    1  UNL1        0.0036
     22 C          62.3057   87.5828   11.0787 C.ar    1  UNL1       -0.0029
     23 C          60.9628   85.8549    7.7678 C.3     1  UNL1        0.4186
     24 F          60.7630   84.8449    6.6770 F       1  UNL1       -0.1659
     25 F          59.4960   86.1679    7.7467 F       1  UNL1       -0.1659
     26 F          62.4296   85.5419    7.7890 F       1  UNL1       -0.1659
@<TRIPOS>BOND
     1    13    14    1
     2    14    15    1
     3    14    12    1
     4    12     1    1
     5     1     2    1
     6     2     3   ar
     7     3     4   ar
     8     4     5   ar
     9     5     6   ar
    10     6     7    1
    11     7     8    1
    12     8    16    1
    13    16    17    1
    14    17    18   ar
    15    18    19   ar
    16    19    20   ar
    17    20    23    1
    18    23    24    1
    19    23    25    1
    20    23    26    1
    21    20    21   ar
    22    21    22   ar
    23     8     9    1
    24     9    10    2
    25     9    11    2
    26     9     1    1
    27     6     2   ar
    28    22    17   ar
@<TRIPOS>MOLECULE
*****
 26 28 0 0 0
SMALL
GASTEIGER

@<TRIPOS>ATOM
      1 C          61.8875   86.5470   10.7826 C.3     1  UNL1        0.2337
      2 N          60.9955   87.1273    9.7254 N.ar    1  UNL1       -0.2923
      3 C          60.2197   86.4944    8.6086 C.ar    1  UNL1        0.1796
      4 N          59.5028   87.5835    7.8670 N.ar    1  UNL1       -0.2226
      5 C          59.8356   88.8895    8.5255 C.ar    1  UNL1        0.1148
      6 C          60.7582   88.6075    9.6741 C.ar    1  UNL1        0.0770
      7 C          61.4128   89.5074   10.6799 C.3     1  UNL1        0.1410
      8 N          62.3048   88.9271   11.7370 N.3     1  UNL1       -0.1473
      9 S          62.5422   87.4469   11.7884 S.O2    1  UNL1        0.0628
     10 O          63.3804   87.8857   12.9525 O.2     1  UNL1       -0.1555
     11 O          63.0706   86.1190   12.2440 O.2     1  UNL1       -0.1555
     12 C          62.1249   85.0667   10.8340 C.3     1  UNL1        0.0490
     13 C          63.9209   83.2534   10.3481 C.3     1  UNL1        0.0001
     14 C          63.1100   84.4322    9.8975 C.3     1  UNL1        0.0037
     15 C          63.2842   84.9763    8.5106 C.3     1  UNL1        0.0001
     16 C          62.9594   89.8270   12.7429 C.3     1  UNL1        0.1222
     17 C          63.8487   90.9441   12.2830 C.ar    1  UNL1       -0.0045
     18 C          63.7834   91.4180   10.8614 C.ar    1  UNL1       -0.0029
     19 C          64.6727   92.5351   10.4015 C.ar    1  UNL1        0.0036
     20 C          65.6273   93.1781   11.3635 C.ar    1  UNL1        0.0714
     21 C          65.6927   92.7042   12.7850 C.ar    1  UNL1        0.0036
     22 C          64.8033   91.5871   13.2449 C.ar    1  UNL1       -0.0029
     23 C          66.5166   94.2952   10.9036 C.3     1  UNL1        0.4186
     24 F          67.4059   95.4122   10.4438 F       1  UNL1       -0.1659
     25 F          66.1721   95.0770   12.1365 F       1  UNL1       -0.1659
     26 F          66.8611   93.5133    9.6707 F       1  UNL1       -0.1659
@<TRIPOS>BOND
     1    13    14    1
     2    14    15    1
     3    14    12    1
     4    12     1    1
     5     1     2    1
     6     2     3   ar
     7     3     4   ar
     8     4     5   ar
     9     5     6   ar
    10     6     7    1
    11     7     8    1
    12     8    16    1
    13    16    17    1
    14    17    18   ar
    15    18    19   ar
    16    19    20   ar
    17    20    23    1
    18    23    24    1
    19    23    25    1
    20    23    26    1
    21    20    21   ar
    22    21    22   ar
    23     8     9    1
    24     9    10    2
    25     9    11    2
    26     9     1    1
    27     6     2   ar
    28    22    17   ar
@<TRIPOS>MOLECULE
*****
 26 28 0 0 0
SMALL
GASTEIGER

@<TRIPOS>ATOM
      1 C          62.4672   89.0053   11.9291 C.3     1  UNL1        0.2337
      2 N          61.5421   88.7261   10.7819 N.ar    1  UNL1       -0.2923
      3 C          60.7693   89.6340    9.8717 C.ar    1  UNL1        0.1796
      4 N          60.0084   88.7797    8.9017 N.ar    1  UNL1       -0.2226
      5 C          60.3108   87.3437    9.2123 C.ar    1  UNL1        0.1148
      6 C          61.2588   87.3106   10.3743 C.ar    1  UNL1        0.0770
      7 C          61.9005   86.1743   11.1140 C.3     1  UNL1        0.1410
      8 N          62.8257   86.4536   12.2612 N.3     1  UNL1       -0.1473
      9 S          63.1090   87.8690   12.6688 S.O2    1  UNL1        0.0628
     10 O          63.9507   87.1360   13.6709 O.2     1  UNL1       -0.1555
     11 O          63.6847   89.0300   13.4244 O.2     1  UNL1       -0.1555
     12 C          62.7506   90.4208   12.3367 C.3     1  UNL1        0.0490
     13 C          64.8955   91.8789   12.1851 C.3     1  UNL1        0.0001
     14 C          63.6975   91.2585   11.5295 C.3     1  UNL1        0.0037
     15 C          63.4464   91.4758   10.0667 C.3     1  UNL1        0.0001
     16 C          63.4674   85.3173   13.0009 C.3     1  UNL1        0.1222
     17 C          63.2958   83.9105   12.5095 C.ar    1  UNL1       -0.0045
     18 C          63.8948   83.4956   11.1984 C.ar    1  UNL1       -0.0029
     19 C          63.7231   82.0888   10.7070 C.ar    1  UNL1        0.0036
     20 C          62.9524   81.0969   11.5268 C.ar    1  UNL1        0.0714
     21 C          62.3533   81.5117   12.8379 C.ar    1  UNL1        0.0036
     22 C          62.5250   82.9186   13.3292 C.ar    1  UNL1       -0.0029
     23 C          62.7807   79.6901   11.0355 C.3     1  UNL1        0.4186
     24 F          62.6090   78.2833   10.5441 F       1  UNL1       -0.1659
     25 F          62.4817   79.2380   12.4341 F       1  UNL1       -0.1659
     26 F          63.0797   80.1421    9.6368 F       1  UNL1       -0.1659
@<TRIPOS>BOND
     1    13    14    1
     2    14    15    1
     3    14    12    1
     4    12     1    1
     5     1     2    1
     6     2     3   ar
     7     3     4   ar
     8     4     5   ar
     9     5     6   ar
    10     6     7    1
    11     7     8    1
    12     8    16    1
    13    16    17    1
    14    17    18   ar
    15    18    19   ar
    16    19    20   ar
    17    20    23    1
    18    23    24    1
    19    23    25    1
    20    23    26    1
    21    20    21   ar
    22    21    22   ar
    23     8     9    1
    24     9    10    2
    25     9    11    2
    26     9     1    1
    27     6     2   ar
    28    22    17   ar
@<TRIPOS>MOLECULE
*****
 26 28 0 0 0
SMALL
GASTEIGER

@<TRIPOS>ATOM
      1 C          63.4952   89.8696   12.7148 C.3     1  UNL1        0.2337
      2 N          62.6631   89.5201   11.5167 N.ar    1  UNL1       -0.2923
      3 C          62.0397   90.3661   10.4463 C.ar    1  UNL1        0.1796
      4 N          61.3160   89.4559    9.4989 N.ar    1  UNL1       -0.2226
      5 C          61.4922   88.0473    9.9836 C.ar    1  UNL1        0.1148
      6 C          62.3247   88.0870   11.2307 C.ar    1  UNL1        0.0770
      7 C          62.8185   87.0034   12.1429 C.3     1  UNL1        0.1410
      8 N          63.6505   87.3529   13.3410 N.3     1  UNL1       -0.1473
      9 S          63.9889   88.7859   13.6269 S.O2    1  UNL1        0.0628
     10 O          64.6840   88.1196   14.7772 O.2     1  UNL1       -0.1555
     11 O          64.5687   89.9876   14.3124 O.2     1  UNL1       -0.1555
     12 C          63.8336   91.3027   13.0008 C.3     1  UNL1        0.0490
     13 C          66.2002   92.3745   12.9841 C.3     1  UNL1        0.0001
     14 C          64.9512   91.9722   12.2574 C.3     1  UNL1        0.0037
     15 C          64.8198   92.2394   10.7872 C.3     1  UNL1        0.0001
     16 C          64.1443   86.2692   14.2531 C.3     1  UNL1        0.1222
     17 C          63.6622   84.8602   14.0733 C.ar    1  UNL1       -0.0045
     18 C          62.5669   84.3248   14.9472 C.ar    1  UNL1       -0.0029
     19 C          62.0849   82.9158   14.7674 C.ar    1  UNL1        0.0036
     20 C          62.6982   82.0421   13.7135 C.ar    1  UNL1        0.0714
     21 C          63.7934   82.5774   12.8396 C.ar    1  UNL1        0.0036
     22 C          64.2755   83.9865   13.0194 C.ar    1  UNL1       -0.0029
     23 C          62.2162   80.6331   13.5336 C.3     1  UNL1        0.4186
     24 F          61.7342   79.2241   13.3538 F       1  UNL1       -0.1659
     25 F          61.1253   80.8787   14.5334 F       1  UNL1       -0.1659
     26 F          63.3072   80.3875   12.5339 F       1  UNL1       -0.1659
@<TRIPOS>BOND
     1    13    14    1
     2    14    15    1
     3    14    12    1
     4    12     1    1
     5     1     2    1
     6     2     3   ar
     7     3     4   ar
     8     4     5   ar
     9     5     6   ar
    10     6     7    1
    11     7     8    1
    12     8    16    1
    13    16    17    1
    14    17    18   ar
    15    18    19   ar
    16    19    20   ar
    17    20    23    1
    18    23    24    1
    19    23    25    1
    20    23    26    1
    21    20    21   ar
    22    21    22   ar
    23     8     9    1
    24     9    10    2
    25     9    11    2
    26     9     1    1
    27     6     2   ar
    28    22    17   ar
@<TRIPOS>MOLECULE
*****
 26 28 0 0 0
SMALL
GASTEIGER

@<TRIPOS>ATOM
      1 C          62.8116   86.2198   11.8851 C.3     1  UNL1        0.2337
      2 N          63.5486   85.5157   12.9855 N.ar    1  UNL1       -0.2923
      3 C          63.8161   84.0627   13.2447 C.ar    1  UNL1        0.1796
      4 N          64.6129   83.9568   14.5111 N.ar    1  UNL1       -0.2226
      5 C          64.8377   85.3444   15.0347 C.ar    1  UNL1        0.1148
      6 C          64.1799   86.3079   14.0918 C.ar    1  UNL1        0.0770
      7 C          64.0743   87.8041   14.0977 C.3     1  UNL1        0.1410
      8 N          63.3373   88.5082   12.9972 N.3     1  UNL1       -0.1473
      9 S          62.7059   87.7161   11.8910 S.O2    1  UNL1        0.0628
     10 O          62.3364   89.1048   11.4606 O.2     1  UNL1       -0.1555
     11 O          61.9462   87.4062   10.6352 O.2     1  UNL1       -0.1555
     12 C          62.1801   85.4277   10.7787 C.3     1  UNL1        0.0490
     13 C          63.0963   85.3571    8.3486 C.3     1  UNL1        0.0001
     14 C          63.0403   84.7823    9.7330 C.3     1  UNL1        0.0037
     15 C          63.8445   83.5622   10.0716 C.3     1  UNL1        0.0001
     16 C          63.2316   90.0045   13.0031 C.3     1  UNL1        0.1222
     17 C          64.3188   90.8306   13.6241 C.ar    1  UNL1       -0.0045
     18 C          65.4166   91.3907   12.7691 C.ar    1  UNL1       -0.0029
     19 C          66.5038   92.2168   13.3901 C.ar    1  UNL1        0.0036
     20 C          66.4930   92.4828   14.8664 C.ar    1  UNL1        0.0714
     21 C          65.3953   91.9228   15.7214 C.ar    1  UNL1        0.0036
     22 C          64.3081   91.0966   15.1003 C.ar    1  UNL1       -0.0029
     23 C          67.5802   93.3089   15.4874 C.3     1  UNL1        0.4186
     24 F          68.6673   94.1349   16.1085 F       1  UNL1       -0.1659
     25 F          67.9756   92.1436   16.3452 F       1  UNL1       -0.1659
     26 F          67.1848   94.4741   14.6297 F       1  UNL1       -0.1659
@<TRIPOS>BOND
     1    13    14    1
     2    14    15    1
     3    14    12    1
     4    12     1    1
     5     1     2    1
     6     2     3   ar
     7     3     4   ar
     8     4     5   ar
     9     5     6   ar
    10     6     7    1
    11     7     8    1
    12     8    16    1
    13    16    17    1
    14    17    18   ar
    15    18    19   ar
    16    19    20   ar
    17    20    23    1
    18    23    24    1
    19    23    25    1
    20    23    26    1
    21    20    21   ar
    22    21    22   ar
    23     8     9    1
    24     9    10    2
    25     9    11    2
    26     9     1    1
    27     6     2   ar
    28    22    17   ar
@<TRIPOS>MOLECULE
*****
 26 28 0 0 0
SMALL
GASTEIGER

@<TRIPOS>ATOM
      1 C          63.5738   86.2988   13.2063 C.3     1  UNL1        0.2337
      2 N          62.7656   86.2130   11.9455 N.ar    1  UNL1       -0.2923
      3 C          62.2796   85.0429   11.1426 C.ar    1  UNL1        0.1796
      4 N          61.5113   85.5735    9.9686 N.ar    1  UNL1       -0.2226
      5 C          61.5225   87.0715   10.0460 C.ar    1  UNL1        0.1148
      6 C          62.2977   87.4667   11.2678 C.ar    1  UNL1        0.0770
      7 C          62.6380   88.8062   11.8509 C.3     1  UNL1        0.1410
      8 N          63.4462   88.8920   13.1116 N.3     1  UNL1       -0.1473
      9 S          63.9141   87.6384   13.7893 S.O2    1  UNL1        0.0628
     10 O          64.4859   88.6665   14.7200 O.2     1  UNL1       -0.1555
     11 O          64.5806   86.7417   14.7902 O.2     1  UNL1       -0.1555
     12 C          64.0418   85.0451   13.8840 C.3     1  UNL1        0.0490
     13 C          62.8608   82.7330   13.7880 C.3     1  UNL1        0.0001
     14 C          63.0418   84.0733   14.4368 C.3     1  UNL1        0.0037
     15 C          62.2227   84.4417   15.6382 C.3     1  UNL1        0.0001
     16 C          63.7864   90.2316   13.6946 C.3     1  UNL1        0.1222
     17 C          64.5700   91.2237   12.8873 C.ar    1  UNL1       -0.0045
     18 C          64.1526   91.5443   11.4826 C.ar    1  UNL1       -0.0029
     19 C          64.9362   92.5364   10.6752 C.ar    1  UNL1        0.0036
     20 C          66.1372   93.2079   11.2726 C.ar    1  UNL1        0.0714
     21 C          66.5545   92.8873   12.6772 C.ar    1  UNL1        0.0036
     22 C          65.7709   91.8952   13.4846 C.ar    1  UNL1       -0.0029
     23 C          66.9207   94.2000   10.4653 C.3     1  UNL1        0.4186
     24 F          67.7043   95.1921    9.6580 F       1  UNL1       -0.1659
     25 F          67.2555   93.1271    9.4719 F       1  UNL1       -0.1659
     26 F          66.5859   95.2728   11.4587 F       1  UNL1       -0.1659
@<TRIPOS>BOND
     1    13    14    1
     2    14    15    1
     3    14    12    1
     4    12     1    1
     5     1     2    1
     6     2     3   ar
     7     3     4   ar
     8     4     5   ar
     9     5     6   ar
    10     6     7    1
    11     7     8    1
    12     8    16    1
    13    16    17    1
    14    17    18   ar
    15    18    19   ar
    16    19    20   ar
    17    20    23    1
    18    23    24    1
    19    23    25    1
    20    23    26    1
    21    20    21   ar
    22    21    22   ar
    23     8     9    1
    24     9    10    2
    25     9    11    2
    26     9     1    1
    27     6     2   ar
    28    22    17   ar
@<TRIPOS>MOLECULE
*****
 26 28 0 0 0
SMALL
GASTEIGER

@<TRIPOS>ATOM
      1 C          61.1886   88.3854   10.7125 C.3     1  UNL1        0.2337
      2 N          60.5195   87.9299    9.4496 N.ar    1  UNL1       -0.2923
      3 C          59.5601   88.6119    8.5198 C.ar    1  UNL1        0.1796
      4 N          59.2288   87.6557    7.4126 N.ar    1  UNL1       -0.2226
      5 C          59.9834   86.3828    7.6581 C.ar    1  UNL1        0.1148
      6 C          60.7811   86.5522    8.9171 C.ar    1  UNL1        0.0770
      7 C          61.7119   85.6301    9.6473 C.3     1  UNL1        0.1410
      8 N          62.3810   86.0856   10.9102 N.3     1  UNL1       -0.1473
      9 S          62.1194   87.4632   11.4427 S.O2    1  UNL1        0.0628
     10 O          63.0746   86.9586   12.4835 O.2     1  UNL1       -0.1555
     11 O          62.1894   88.6657   12.3368 O.2     1  UNL1       -0.1555
     12 C          60.9270   89.7631   11.2451 C.3     1  UNL1        0.0490
     13 C          58.9634   91.4496   11.4675 C.3     1  UNL1        0.0001
     14 C          59.5712   90.1147   11.7818 C.3     1  UNL1        0.0037
     15 C          58.8232   89.1316   12.6326 C.3     1  UNL1        0.0001
     16 C          63.3118   85.1634   11.6404 C.3     1  UNL1        0.1222
     17 C          63.2072   83.6804   11.4413 C.ar    1  UNL1       -0.0045
     18 C          62.4832   82.8374   12.4489 C.ar    1  UNL1       -0.0029
     19 C          62.3786   81.3544   12.2497 C.ar    1  UNL1        0.0036
     20 C          62.9982   80.7142   11.0428 C.ar    1  UNL1        0.0714
     21 C          63.7222   81.5571   10.0353 C.ar    1  UNL1        0.0036
     22 C          63.8267   83.0402   10.2344 C.ar    1  UNL1       -0.0029
     23 C          62.8936   79.2312   10.8437 C.3     1  UNL1        0.4186
     24 F          62.7890   77.7482   10.6445 F       1  UNL1       -0.1659
     25 F          62.5361   79.0621   12.2906 F       1  UNL1       -0.1659
     26 F          63.2511   79.4003    9.3968 F       1  UNL1       -0.1659
@<TRIPOS>BOND
     1    13    14    1
     2    14    15    1
     3    14    12    1
     4    12     1    1
     5     1     2    1
     6     2     3   ar
     7     3     4   ar
     8     4     5   ar
     9     5     6   ar
    10     6     7    1
    11     7     8    1
    12     8    16    1
    13    16    17    1
    14    17    18   ar
    15    18    19   ar
    16    19    20   ar
    17    20    23    1
    18    23    24    1
    19    23    25    1
    20    23    26    1
    21    20    21   ar
    22    21    22   ar
    23     8     9    1
    24     9    10    2
    25     9    11    2
    26     9     1    1
    27     6     2   ar
    28    22    17   ar
@<TRIPOS>MOLECULE
*****
 26 28 0 0 0
SMALL
GASTEIGER

@<TRIPOS>ATOM
      1 C          63.3923   86.7232   12.9502 C.3     1  UNL1        0.2337
      2 N          62.7773   87.0072   11.6119 N.ar    1  UNL1       -0.2923
      3 C          62.4903   86.1266   10.4320 C.ar    1  UNL1        0.1796
      4 N          61.8604   86.9720    9.3651 N.ar    1  UNL1       -0.2226
      5 C          61.7581   88.3751    9.8855 C.ar    1  UNL1        0.1148
      6 C          62.3248   88.3969   11.2741 C.ar    1  UNL1        0.0770
      7 C          62.4873   89.5026   12.2746 C.3     1  UNL1        0.1410
      8 N          63.1023   89.2186   13.6130 N.3     1  UNL1       -0.1473
      9 S          63.5547   87.8290   13.9508 S.O2    1  UNL1        0.0628
     10 O          63.9182   88.5375   15.2220 O.2     1  UNL1       -0.1555
     11 O          64.1335   86.6853   14.7301 O.2     1  UNL1       -0.1555
     12 C          63.8448   85.3336   13.2881 C.3     1  UNL1        0.0490
     13 C          62.6169   83.2503   12.3385 C.3     1  UNL1        0.0001
     14 C          62.8365   84.2347   13.4487 C.3     1  UNL1        0.0037
     15 C          62.0479   84.1203   14.7195 C.3     1  UNL1        0.0001
     16 C          63.2647   90.3243   14.6135 C.3     1  UNL1        0.1222
     17 C          64.5822   91.0292   14.7449 C.ar    1  UNL1       -0.0045
     18 C          64.9283   91.7411   16.0191 C.ar    1  UNL1       -0.0029
     19 C          66.2458   92.4460   16.1504 C.ar    1  UNL1        0.0036
     20 C          67.2174   92.4390   15.0075 C.ar    1  UNL1        0.0714
     21 C          66.8714   91.7272   13.7334 C.ar    1  UNL1        0.0036
     22 C          65.5538   91.0222   13.6021 C.ar    1  UNL1       -0.0029
     23 C          68.5349   93.1439   15.1389 C.3     1  UNL1        0.4186
     24 F          69.8524   93.8487   15.2703 F       1  UNL1       -0.1659
     25 F          69.1345   92.2115   14.1284 F       1  UNL1       -0.1659
     26 F          67.9353   94.0762   16.1494 F       1  UNL1       -0.1659
@<TRIPOS>BOND
     1    13    14    1
     2    14    15    1
     3    14    12    1
     4    12     1    1
     5     1     2    1
     6     2     3   ar
     7     3     4   ar
     8     4     5   ar
     9     5     6   ar
    10     6     7    1
    11     7     8    1
    12     8    16    1
    13    16    17    1
    14    17    18   ar
    15    18    19   ar
    16    19    20   ar
    17    20    23    1
    18    23    24    1
    19    23    25    1
    20    23    26    1
    21    20    21   ar
    22    21    22   ar
    23     8     9    1
    24     9    10    2
    25     9    11    2
    26     9     1    1
    27     6     2   ar
    28    22    17   ar
@<TRIPOS>MOLECULE
*****
 26 28 0 0 0
SMALL
GASTEIGER

@<TRIPOS>ATOM
      1 C          62.7826   94.0230    0.4253 C.3     1  UNL1        0.2337
      2 N          63.2608   94.3966   -0.9464 N.ar    1  UNL1       -0.2923
      3 C          64.5316   95.0317   -1.4278 C.ar    1  UNL1        0.1796
      4 N          64.4482   95.1623   -2.9197 N.ar    1  UNL1       -0.2226
      5 C          63.1258   94.6081   -3.3604 C.ar    1  UNL1        0.1148
      6 C          62.3920   94.1349   -2.1408 C.ar    1  UNL1        0.0770
      7 C          61.0449   93.4994   -1.9635 C.3     1  UNL1        0.1410
      8 N          60.5666   93.1257   -0.5918 N.3     1  UNL1       -0.1473
      9 S          61.4354   93.3875    0.6026 S.O2    1  UNL1        0.0628
     10 O          60.2466   92.7682    1.2760 O.2     1  UNL1       -0.1555
     11 O          61.8914   93.4342    2.0309 O.2     1  UNL1       -0.1555
     12 C          63.6514   94.2847    1.6198 C.3     1  UNL1        0.0490
     13 C          63.0036   96.8001    1.6741 C.3     1  UNL1        0.0001
     14 C          63.9513   95.6946    2.0345 C.3     1  UNL1        0.0037
     15 C          65.1989   95.9992    2.8096 C.3     1  UNL1        0.0001
     16 C          59.2194   92.4902   -0.4145 C.3     1  UNL1        0.1222
     17 C          57.9882   93.1935   -0.9040 C.ar    1  UNL1       -0.0045
     18 C          57.8591   94.6793   -0.7432 C.ar    1  UNL1       -0.0029
     19 C          56.6280   95.3826   -1.2327 C.ar    1  UNL1        0.0036
     20 C          55.5258   94.6000   -1.8831 C.ar    1  UNL1        0.0714
     21 C          55.6549   93.1143   -2.0440 C.ar    1  UNL1        0.0036
     22 C          56.8861   92.4110   -1.5545 C.ar    1  UNL1       -0.0029
     23 C          54.2947   95.3033   -2.3726 C.3     1  UNL1        0.4186
     24 F          53.0635   96.0066   -2.8621 F       1  UNL1       -0.1659
     25 F          54.7342   95.0860   -3.7902 F       1  UNL1       -0.1659
     26 F          53.8551   95.5205   -0.9550 F       1  UNL1       -0.1659
@<TRIPOS>BOND
     1    13    14    1
     2    14    15    1
     3    14    12    1
     4    12     1    1
     5     1     2    1
     6     2     3   ar
     7     3     4   ar
     8     4     5   ar
     9     5     6   ar
    10     6     7    1
    11     7     8    1
    12     8    16    1
    13    16    17    1
    14    17    18   ar
    15    18    19   ar
    16    19    20   ar
    17    20    23    1
    18    23    24    1
    19    23    25    1
    20    23    26    1
    21    20    21   ar
    22    21    22   ar
    23     8     9    1
    24     9    10    2
    25     9    11    2
    26     9     1    1
    27     6     2   ar
    28    22    17   ar
