@<TRIPOS>MOLECULE
*****
 18 20 0 0 0
SMALL
GASTEIGER

@<TRIPOS>ATOM
      1 C          63.1436   89.7234   12.0851 C.3     1  UNL1        0.0896
      2 N          62.2930   89.0731   11.0346 N.3     1  UNL1       -0.2712
      3 C          61.2690   89.7594   10.1800 C.3     1  UNL1        0.0725
      4 C          60.6601   88.7327    9.2715 C.3     1  UNL1        0.0210
      5 C          59.5996   88.8300    8.2152 C.3     1  UNL1        0.0017
      6 C          59.1868   87.6064    7.4521 C.3     1  UNL1        0.0001
      7 C          59.8346   86.2856    7.7452 C.3     1  UNL1        0.0004
      8 C          60.8951   86.1884    8.8015 C.3     1  UNL1        0.0054
      9 C          61.3079   87.4120    9.5646 C.3     1  UNL1        0.0349
     10 C          62.3170   87.6223   10.6543 C.3     1  UNL1        0.0762
     11 C          62.0410   86.1664    9.9660 C.ar    1  UNL1       -0.0206
     12 C          62.8879   85.4389    8.9643 C.ar    1  UNL1       -0.0033
     13 C          63.6210   84.1934    9.3656 C.ar    1  UNL1        0.0119
     14 C          63.5072   83.6753   10.7686 C.ar    1  UNL1        0.0682
     15 CL         64.2403   82.4297   11.1700 Cl      1  UNL1       -0.0814
     16 C          62.6603   84.4027   11.7704 C.ar    1  UNL1        0.0679
     17 CL         62.5465   83.8846   13.1735 Cl      1  UNL1       -0.0814
     18 C          61.9272   85.6483   11.3690 C.ar    1  UNL1        0.0080
@<TRIPOS>BOND
     1     1     2    1
     2     2     3    1
     3     4     3    1
     4     4     5    1
     5     5     6    1
     6     6     7    1
     7     7     8    1
     8     8     9    1
     9     9    11    1
    10    11    12   ar
    11    12    13   ar
    12    13    14   ar
    13    14    15    1
    14    14    16   ar
    15    16    17    1
    16    16    18   ar
    17     9    10    1
    18    10     2    1
    19     9     4    1
    20    18    11   ar
@<TRIPOS>MOLECULE
*****
 18 20 0 0 0
SMALL
GASTEIGER

@<TRIPOS>ATOM
      1 C          67.4228   92.4440   15.6855 C.3     1  UNL1        0.0896
      2 N          66.4378   92.0269   14.6340 N.3     1  UNL1       -0.2712
      3 C          66.3117   92.6164   13.2605 C.3     1  UNL1        0.0725
      4 C          65.2019   91.9009   12.5489 C.3     1  UNL1        0.0210
      5 C          64.6288   92.0555   11.1714 C.3     1  UNL1        0.0017
      6 C          63.4958   91.1784   10.7276 C.3     1  UNL1        0.0001
      7 C          62.9360   90.1466   11.6614 C.3     1  UNL1        0.0004
      8 C          63.5090   89.9919   13.0389 C.3     1  UNL1        0.0054
      9 C          64.6420   90.8691   13.4827 C.3     1  UNL1        0.0349
     10 C          65.4058   90.9469   14.7713 C.3     1  UNL1        0.0762
     11 C          64.1882   89.8865   14.5213 C.ar    1  UNL1       -0.0206
     12 C          63.4642   90.3679   15.7436 C.ar    1  UNL1       -0.0033
     13 C          63.0104   89.3854   16.7821 C.ar    1  UNL1        0.0119
     14 C          63.2805   87.9214   16.5984 C.ar    1  UNL1        0.0682
     15 CL         62.8267   86.9389   17.6369 Cl      1  UNL1       -0.0814
     16 C          64.0044   87.4400   15.3761 C.ar    1  UNL1        0.0679
     17 CL         64.2746   85.9759   15.1923 Cl      1  UNL1       -0.0814
     18 C          64.4583   88.4225   14.3375 C.ar    1  UNL1        0.0080
@<TRIPOS>BOND
     1     1     2    1
     2     2     3    1
     3     4     3    1
     4     4     5    1
     5     5     6    1
     6     6     7    1
     7     7     8    1
     8     8     9    1
     9     9    11    1
    10    11    12   ar
    11    12    13   ar
    12    13    14   ar
    13    14    15    1
    14    14    16   ar
    15    16    17    1
    16    16    18   ar
    17     9    10    1
    18    10     2    1
    19     9     4    1
    20    18    11   ar
@<TRIPOS>MOLECULE
*****
 18 20 0 0 0
SMALL
GASTEIGER

@<TRIPOS>ATOM
      1 C          61.3348   89.8894   11.2017 C.3     1  UNL1        0.0896
      2 N          62.5927   90.3732   11.8601 N.3     1  UNL1       -0.2712
      3 C          63.5265   91.4151   11.3192 C.3     1  UNL1        0.0725
      4 C          64.6486   91.5859   12.2998 C.3     1  UNL1        0.0210
      5 C          65.8581   92.4731   12.2965 C.3     1  UNL1        0.0017
      6 C          66.8274   92.4239   13.4402 C.3     1  UNL1        0.0001
      7 C          66.5872   91.4876   14.5872 C.3     1  UNL1        0.0004
      8 C          65.3777   90.6004   14.5905 C.3     1  UNL1        0.0054
      9 C          64.4084   90.6496   13.4468 C.3     1  UNL1        0.0349
     10 C          63.1378   89.9001   13.1751 C.3     1  UNL1        0.0762
     11 C          64.0380   89.6678   14.5187 C.ar    1  UNL1       -0.0206
     12 C          63.3564   90.1427   15.7677 C.ar    1  UNL1       -0.0033
     13 C          62.9860   89.1610   16.8395 C.ar    1  UNL1        0.0119
     14 C          63.2973   87.7043   16.6625 C.ar    1  UNL1        0.0682
     15 CL         62.9269   86.7226   17.7344 Cl      1  UNL1       -0.0814
     16 C          63.9789   87.2294   15.4136 C.ar    1  UNL1        0.0679
     17 CL         64.2902   85.7728   15.2365 Cl      1  UNL1       -0.0814
     18 C          64.3493   88.2112   14.3417 C.ar    1  UNL1        0.0080
@<TRIPOS>BOND
     1     1     2    1
     2     2     3    1
     3     4     3    1
     4     4     5    1
     5     5     6    1
     6     6     7    1
     7     7     8    1
     8     8     9    1
     9     9    11    1
    10    11    12   ar
    11    12    13   ar
    12    13    14   ar
    13    14    15    1
    14    14    16   ar
    15    16    17    1
    16    16    18   ar
    17     9    10    1
    18    10     2    1
    19     9     4    1
    20    18    11   ar
@<TRIPOS>MOLECULE
*****
 18 20 0 0 0
SMALL
GASTEIGER

@<TRIPOS>ATOM
      1 C          58.9804   86.7431    7.4413 C.3     1  UNL1        0.0896
      2 N          59.8451   87.3954    8.4789 N.3     1  UNL1       -0.2712
      3 C          59.7694   88.8284    8.9157 C.3     1  UNL1        0.0725
      4 C          60.8148   89.0479    9.9688 C.3     1  UNL1        0.0210
      5 C          61.2027   90.2615   10.7604 C.3     1  UNL1        0.0017
      6 C          62.3124   90.1778   11.7661 C.3     1  UNL1        0.0001
      7 C          63.0343   88.8804   11.9801 C.3     1  UNL1        0.0004
      8 C          62.6464   87.6669   11.1885 C.3     1  UNL1        0.0054
      9 C          61.5367   87.7506   10.1828 C.3     1  UNL1        0.0349
     10 C          60.9374   86.7293    9.2621 C.3     1  UNL1        0.0762
     11 C          62.1642   86.3922   10.2872 C.ar    1  UNL1       -0.0206
     12 C          62.8456   85.7872    9.0957 C.ar    1  UNL1       -0.0033
     13 C          63.4731   84.4288    9.2002 C.ar    1  UNL1        0.0119
     14 C          63.4192   83.6754   10.4961 C.ar    1  UNL1        0.0682
     15 CL         64.0468   82.3169   10.6005 Cl      1  UNL1       -0.0814
     16 C          62.7379   84.2803   11.6876 C.ar    1  UNL1        0.0679
     17 CL         62.6840   83.5268   12.9836 Cl      1  UNL1       -0.0814
     18 C          62.1103   85.6387   11.5832 C.ar    1  UNL1        0.0080
@<TRIPOS>BOND
     1     1     2    1
     2     2     3    1
     3     4     3    1
     4     4     5    1
     5     5     6    1
     6     6     7    1
     7     7     8    1
     8     8     9    1
     9     9    11    1
    10    11    12   ar
    11    12    13   ar
    12    13    14   ar
    13    14    15    1
    14    14    16   ar
    15    16    17    1
    16    16    18   ar
    17     9    10    1
    18    10     2    1
    19     9     4    1
    20    18    11   ar
@<TRIPOS>MOLECULE
*****
 18 20 0 0 0
SMALL
GASTEIGER

@<TRIPOS>ATOM
      1 C          61.6061   80.9314   13.7873 C.3     1  UNL1        0.0896
      2 N          62.1983   82.2911   14.0120 N.3     1  UNL1       -0.2712
      3 C          62.5393   82.8956   15.3418 C.3     1  UNL1        0.0725
      4 C          63.1052   84.2632   15.0980 C.3     1  UNL1        0.0210
      5 C          63.6136   85.3203   16.0328 C.3     1  UNL1        0.0017
      6 C          64.1308   86.6182   15.4871 C.3     1  UNL1        0.0001
      7 C          64.1396   86.8590   14.0066 C.3     1  UNL1        0.0004
      8 C          63.6311   85.8019   13.0718 C.3     1  UNL1        0.0054
      9 C          63.1139   84.5040   13.6175 C.3     1  UNL1        0.0349
     10 C          62.5534   83.2852   12.9463 C.3     1  UNL1        0.0762
     11 C          63.0607   84.6014   12.1216 C.ar    1  UNL1       -0.0206
     12 C          63.9181   83.7027   11.2805 C.ar    1  UNL1       -0.0033
     13 C          63.8649   83.8001    9.7847 C.ar    1  UNL1        0.0119
     14 C          62.9543   84.7961    9.1299 C.ar    1  UNL1        0.0682
     15 CL         62.9011   84.8935    7.6339 Cl      1  UNL1       -0.0814
     16 C          62.0970   85.6948    9.9708 C.ar    1  UNL1        0.0679
     17 CL         61.1864   86.6909    9.3160 Cl      1  UNL1       -0.0814
     18 C          62.1502   85.5974   11.4667 C.ar    1  UNL1        0.0080
@<TRIPOS>BOND
     1     1     2    1
     2     2     3    1
     3     4     3    1
     4     4     5    1
     5     5     6    1
     6     6     7    1
     7     7     8    1
     8     8     9    1
     9     9    11    1
    10    11    12   ar
    11    12    13   ar
    12    13    14   ar
    13    14    15    1
    14    14    16   ar
    15    16    17    1
    16    16    18   ar
    17     9    10    1
    18    10     2    1
    19     9     4    1
    20    18    11   ar
@<TRIPOS>MOLECULE
*****
 18 20 0 0 0
SMALL
GASTEIGER

@<TRIPOS>ATOM
      1 C          60.8935   86.3753    9.4246 C.3     1  UNL1        0.0896
      2 N          61.7355   86.5376   10.6554 N.3     1  UNL1       -0.2712
      3 C          62.2752   87.8309   11.1902 C.3     1  UNL1        0.0725
      4 C          63.0588   87.5277   12.4328 C.3     1  UNL1        0.0210
      5 C          63.8157   88.4086   13.3821 C.3     1  UNL1        0.0017
      6 C          64.5171   87.8087   14.5645 C.3     1  UNL1        0.0001
      7 C          64.4618   86.3280   14.7976 C.3     1  UNL1        0.0004
      8 C          63.7049   85.4471   13.8483 C.3     1  UNL1        0.0054
      9 C          63.0035   86.0469   12.6659 C.3     1  UNL1        0.0349
     10 C          62.1856   85.4350   11.5674 C.3     1  UNL1        0.0762
     11 C          62.8604   84.5573   12.7691 C.ar    1  UNL1       -0.0206
     12 C          62.3746   83.9371   14.0456 C.ar    1  UNL1       -0.0033
     13 C          62.2315   82.4476   14.1487 C.ar    1  UNL1        0.0119
     14 C          62.5743   81.5782   12.9755 C.ar    1  UNL1        0.0682
     15 CL         62.4312   80.0886   13.0786 Cl      1  UNL1       -0.0814
     16 C          63.0601   82.1983   11.6990 C.ar    1  UNL1        0.0679
     17 CL         63.4028   81.3288   10.5256 Cl      1  UNL1       -0.0814
     18 C          63.2031   83.6879   11.5958 C.ar    1  UNL1        0.0080
@<TRIPOS>BOND
     1     1     2    1
     2     2     3    1
     3     4     3    1
     4     4     5    1
     5     5     6    1
     6     6     7    1
     7     7     8    1
     8     8     9    1
     9     9    11    1
    10    11    12   ar
    11    12    13   ar
    12    13    14   ar
    13    14    15    1
    14    14    16   ar
    15    16    17    1
    16    16    18   ar
    17     9    10    1
    18    10     2    1
    19     9     4    1
    20    18    11   ar
@<TRIPOS>MOLECULE
*****
 18 20 0 0 0
SMALL
GASTEIGER

@<TRIPOS>ATOM
      1 C          64.5853   86.3781   14.9349 C.3     1  UNL1        0.0896
      2 N          64.1605   85.0685   14.3395 N.3     1  UNL1       -0.2712
      3 C          64.2760   83.7237   14.9937 C.3     1  UNL1        0.0725
      4 C          63.7325   82.6978   14.0439 C.3     1  UNL1        0.0210
      5 C          63.5904   81.2083   14.1489 C.3     1  UNL1        0.0017
      6 C          62.9967   80.4296   13.0126 C.3     1  UNL1        0.0001
      7 C          62.5452   81.1404   11.7713 C.3     1  UNL1        0.0004
      8 C          62.6874   82.6300   11.6663 C.3     1  UNL1        0.0054
      9 C          63.2810   83.4086   12.8026 C.3     1  UNL1        0.0349
     10 C          63.5455   84.8738   12.9853 C.3     1  UNL1        0.0762
     11 C          62.8764   84.2525   11.6303 C.ar    1  UNL1       -0.0206
     12 C          63.4719   83.9930   10.2782 C.ar    1  UNL1       -0.0033
     13 C          63.0673   84.8368    9.1060 C.ar    1  UNL1        0.0119
     14 C          62.0672   85.9401    9.2858 C.ar    1  UNL1        0.0682
     15 CL         61.6625   86.7840    8.1135 Cl      1  UNL1       -0.0814
     16 C          61.4717   86.1997   10.6377 C.ar    1  UNL1        0.0679
     17 CL         60.4715   87.3031   10.8176 Cl      1  UNL1       -0.0814
     18 C          61.8763   85.3559   11.8100 C.ar    1  UNL1        0.0080
@<TRIPOS>BOND
     1     1     2    1
     2     2     3    1
     3     4     3    1
     4     4     5    1
     5     5     6    1
     6     6     7    1
     7     7     8    1
     8     8     9    1
     9     9    11    1
    10    11    12   ar
    11    12    13   ar
    12    13    14   ar
    13    14    15    1
    14    14    16   ar
    15    16    17    1
    16    16    18   ar
    17     9    10    1
    18    10     2    1
    19     9     4    1
    20    18    11   ar
@<TRIPOS>MOLECULE
*****
 18 20 0 0 0
SMALL
GASTEIGER

@<TRIPOS>ATOM
      1 C          62.0182   84.8664   15.7555 C.3     1  UNL1        0.0896
      2 N          62.4752   84.4383   14.3924 N.3     1  UNL1       -0.2712
      3 C          63.1111   83.1241   14.0482 C.3     1  UNL1        0.0725
      4 C          63.4055   83.1227   12.5773 C.3     1  UNL1        0.0210
      5 C          64.0282   82.0952   11.6794 C.3     1  UNL1        0.0017
      6 C          64.1971   82.3811   10.2166 C.3     1  UNL1        0.0001
      7 C          63.7432   83.6945    9.6518 C.3     1  UNL1        0.0004
      8 C          63.1204   84.7220   10.5498 C.3     1  UNL1        0.0054
      9 C          62.9516   84.4361   12.0126 C.3     1  UNL1        0.0349
     10 C          62.3767   85.2491   13.1344 C.3     1  UNL1        0.0762
     11 C          62.4524   85.7870   11.5933 C.ar    1  UNL1       -0.0206
     12 C          63.0957   87.0270   12.1396 C.ar    1  UNL1       -0.0033
     13 C          62.5966   88.3779   11.7204 C.ar    1  UNL1        0.0119
     14 C          61.4540   88.4889   10.7549 C.ar    1  UNL1        0.0682
     15 CL         60.9548   89.8398   10.3357 Cl      1  UNL1       -0.0814
     16 C          60.8106   87.2489   10.2086 C.ar    1  UNL1        0.0679
     17 CL         59.6680   87.3599    9.2431 Cl      1  UNL1       -0.0814
     18 C          61.3098   85.8980   10.6279 C.ar    1  UNL1        0.0080
@<TRIPOS>BOND
     1     1     2    1
     2     2     3    1
     3     4     3    1
     4     4     5    1
     5     5     6    1
     6     6     7    1
     7     7     8    1
     8     8     9    1
     9     9    11    1
    10    11    12   ar
    11    12    13   ar
    12    13    14   ar
    13    14    15    1
    14    14    16   ar
    15    16    17    1
    16    16    18   ar
    17     9    10    1
    18    10     2    1
    19     9     4    1
    20    18    11   ar
@<TRIPOS>MOLECULE
*****
 18 20 0 0 0
SMALL
GASTEIGER

@<TRIPOS>ATOM
      1 C          60.9975   86.6721    9.8683 C.3     1  UNL1        0.0896
      2 N          61.8959   86.6344   11.0689 N.3     1  UNL1       -0.2712
      3 C          62.4625   87.8250   11.7840 C.3     1  UNL1        0.0725
      4 C          63.3022   87.3258   12.9223 C.3     1  UNL1        0.0210
      5 C          64.1040   88.0427   13.9678 C.3     1  UNL1        0.0017
      6 C          64.8582   87.2604   15.0017 C.3     1  UNL1        0.0001
      7 C          64.8106   85.7612   14.9902 C.3     1  UNL1        0.0004
      8 C          64.0088   85.0443   13.9446 C.3     1  UNL1        0.0054
      9 C          63.2546   85.8266   12.9107 C.3     1  UNL1        0.0349
     10 C          62.3855   85.3993   11.7652 C.3     1  UNL1        0.0762
     11 C          63.1134   84.3396   12.7737 C.ar    1  UNL1       -0.0206
     12 C          63.9336   83.5985   11.7597 C.ar    1  UNL1       -0.0033
     13 C          63.7924   82.1116   11.6227 C.ar    1  UNL1        0.0119
     14 C          62.8309   81.3656   12.4997 C.ar    1  UNL1        0.0682
     15 CL         62.6897   79.8785   12.3626 Cl      1  UNL1       -0.0814
     16 C          62.0108   82.1065   13.5136 C.ar    1  UNL1        0.0679
     17 CL         61.0493   81.3604   14.3907 Cl      1  UNL1       -0.0814
     18 C          62.1520   83.5935   13.6506 C.ar    1  UNL1        0.0080
@<TRIPOS>BOND
     1     1     2    1
     2     2     3    1
     3     4     3    1
     4     4     5    1
     5     5     6    1
     6     6     7    1
     7     7     8    1
     8     8     9    1
     9     9    11    1
    10    11    12   ar
    11    12    13   ar
    12    13    14   ar
    13    14    15    1
    14    14    16   ar
    15    16    17    1
    16    16    18   ar
    17     9    10    1
    18    10     2    1
    19     9     4    1
    20    18    11   ar
