@<TRIPOS>MOLECULE
*****
 30 33 0 0 0
SMALL
GASTEIGER

@<TRIPOS>ATOM
      1 C          63.3704   83.7902   13.1644 C.ar    1  UNL1        0.1311
      2 C          62.3128   84.8279   12.9304 C.ar    1  UNL1        0.0339
      3 C          62.0237   85.3032   11.5374 C.ar    1  UNL1        0.0027
      4 C          62.7921   84.7408   10.3784 C.ar    1  UNL1        0.0283
      5 C          63.8497   83.7031   10.6124 C.ar    1  UNL1        0.2196
      6 F          64.6181   83.1408    9.4534 F       1  UNL1       -0.1835
      7 N          64.1388   83.2279   12.0054 N.ar    1  UNL1       -0.2035
      8 N          63.6596   83.3149   14.5574 N.pl3   1  UNL1       -0.3144
      9 H          63.3206   82.4415   14.8597 H       1  UNL1        0.1485
     10 C          64.4652   84.1704   15.4898 C.3     1  UNL1        0.1169
     11 C          63.4367   88.5206   16.0070 C.ar    1  UNL1        0.2250
     12 C          64.3242   88.0889   14.8774 C.ar    1  UNL1        0.0574
     13 C          64.6670   86.6388   14.7050 C.ar    1  UNL1        0.0037
     14 C          64.1223   85.6204   15.6622 C.ar    1  UNL1        0.0168
     15 C          63.2348   86.0521   16.7918 C.ar    1  UNL1        0.0994
     16 N          62.8920   87.5022   16.9642 N.ar    1  UNL1       -0.2104
     17 C          64.0099   91.0275   15.6374 C.3     1  UNL1        0.2542
     18 O          63.0938   89.9706   16.1794 O.3     1  UNL1       -0.4561
     19 C          62.5029   85.2161    8.9853 C.3     1  UNL1        0.0582
     20 C          61.5057   86.3136    8.7592 C.ar    1  UNL1        0.0045
     21 C          60.2966   86.2377    7.8748 C.ar    1  UNL1        0.0966
     22 N          59.5861   87.5569    7.9468 N.ar    1  UNL1       -0.2273
     23 C          60.3562   88.4480    8.8758 C.ar    1  UNL1        0.1404
     24 N          60.1304   89.8598    9.3293 N.ar    1  UNL1       -0.3356
     25 C          61.0910   90.5032   10.2849 C.ar    1  UNL1        0.1035
     26 C          62.2774   89.7349   10.7870 C.ar    1  UNL1        0.1572
     27 F          63.2380   90.3784   11.7426 F       1  UNL1       -0.2026
     28 C          62.5032   88.3230   10.3335 C.ar    1  UNL1        0.0339
     29 C          61.5426   87.6796    9.3778 C.ar    1  UNL1        0.0341
     30 H          59.3518   90.3641    8.9997 H       1  UNL1        0.1675
@<TRIPOS>BOND
     1    17    18    1
     2    18    11    1
     3    11    12   ar
     4    12    13   ar
     5    13    14   ar
     6    14    10    1
     7    10     8    1
     8     8     1    1
     9     1     2   ar
    10     2     3   ar
    11     3     4   ar
    12     4    19    1
    13    19    20    1
    14    20    21   ar
    15    21    22   ar
    16    22    23   ar
    17    23    24   ar
    18    24    25   ar
    19    25    26   ar
    20    26    27    1
    21    26    28   ar
    22    28    29   ar
    23     4     5   ar
    24     5     6    1
    25     5     7   ar
    26    14    15   ar
    27    15    16   ar
    28    16    11   ar
    29     7     1   ar
    30    29    20   ar
    31    29    23    1
    32     8     9    1
    33    24    30    1
@<TRIPOS>MOLECULE
*****
 30 33 0 0 0
SMALL
GASTEIGER

@<TRIPOS>ATOM
      1 C          62.7198   90.0072   11.1062 C.ar    1  UNL1        0.1311
      2 C          63.1483   88.9598   12.0907 C.ar    1  UNL1        0.0339
      3 C          62.7894   87.5219   11.8596 C.ar    1  UNL1        0.0027
      4 C          62.0022   87.1313   10.6441 C.ar    1  UNL1        0.0283
      5 C          61.5737   88.1787    9.6595 C.ar    1  UNL1        0.2196
      6 F          60.7864   87.7881    8.4440 F       1  UNL1       -0.1835
      7 N          61.9325   89.6166    9.8906 N.ar    1  UNL1       -0.2035
      8 N          63.0786   91.4452   11.3372 N.pl3   1  UNL1       -0.3144
      9 H          62.3772   92.0968   11.5667 H       1  UNL1        0.1485
     10 C          64.5061   91.8906   11.2185 C.3     1  UNL1        0.1169
     11 C          66.7914   93.1229   14.8939 C.ar    1  UNL1        0.2250
     12 C          65.9891   91.8555   14.8994 C.ar    1  UNL1        0.0574
     13 C          65.2273   91.4447   13.6743 C.ar    1  UNL1        0.0037
     14 C          65.2679   92.3014   12.4436 C.ar    1  UNL1        0.0168
     15 C          66.0702   93.5687   12.4381 C.ar    1  UNL1        0.0994
     16 N          66.8319   93.9795   13.6632 N.ar    1  UNL1       -0.2104
     17 C          68.9792   93.9833   15.9998 C.3     1  UNL1        0.2542
     18 O          67.5531   93.5337   16.1190 O.3     1  UNL1       -0.4561
     19 C          61.6433   85.6932   10.4130 C.3     1  UNL1        0.0582
     20 C          62.6780   84.6230   10.5977 C.ar    1  UNL1        0.0045
     21 C          63.5545   84.0494    9.5240 C.ar    1  UNL1        0.0966
     22 N          64.4361   83.0104   10.1512 N.ar    1  UNL1       -0.2273
     23 C          64.1045   82.9420   11.6125 C.ar    1  UNL1        0.1404
     24 N          64.6515   82.1009   12.7275 N.ar    1  UNL1       -0.3356
     25 C          64.1120   82.2564   14.1184 C.ar    1  UNL1        0.1035
     26 C          63.0255   83.2531   14.3944 C.ar    1  UNL1        0.1572
     27 F          62.4860   83.4086   15.7854 F       1  UNL1       -0.2026
     28 C          62.4784   84.0941   13.2794 C.ar    1  UNL1        0.0339
     29 C          63.0179   83.9386   11.8885 C.ar    1  UNL1        0.0341
     30 H          65.3646   81.4467   12.5464 H       1  UNL1        0.1675
@<TRIPOS>BOND
     1    17    18    1
     2    18    11    1
     3    11    12   ar
     4    12    13   ar
     5    13    14   ar
     6    14    10    1
     7    10     8    1
     8     8     1    1
     9     1     2   ar
    10     2     3   ar
    11     3     4   ar
    12     4    19    1
    13    19    20    1
    14    20    21   ar
    15    21    22   ar
    16    22    23   ar
    17    23    24   ar
    18    24    25   ar
    19    25    26   ar
    20    26    27    1
    21    26    28   ar
    22    28    29   ar
    23     4     5   ar
    24     5     6    1
    25     5     7   ar
    26    14    15   ar
    27    15    16   ar
    28    16    11   ar
    29     7     1   ar
    30    29    20   ar
    31    29    23    1
    32     8     9    1
    33    24    30    1
@<TRIPOS>MOLECULE
*****
 30 33 0 0 0
SMALL
GASTEIGER

@<TRIPOS>ATOM
      1 C          62.0588   88.6056   10.6425 C.ar    1  UNL1        0.1311
      2 C          62.1235   89.7806    9.7125 C.ar    1  UNL1        0.0339
      3 C          62.8848   91.0105   10.1097 C.ar    1  UNL1        0.0027
      4 C          63.5814   91.0653   11.4370 C.ar    1  UNL1        0.0283
      5 C          63.5168   89.8902   12.3671 C.ar    1  UNL1        0.2196
      6 F          64.2134   89.9450   13.6944 F       1  UNL1       -0.1835
      7 N          62.7555   88.6604   11.9698 N.ar    1  UNL1       -0.2035
      8 N          61.2975   87.3757   10.2453 N.pl3   1  UNL1       -0.3144
      9 H          60.3384   87.3015   10.4546 H       1  UNL1        0.1485
     10 C          61.9975   86.2588    9.5293 C.3     1  UNL1        0.1169
     11 C          63.8059   82.8686   11.8716 C.ar    1  UNL1        0.2250
     12 C          64.0600   82.9813   10.3976 C.ar    1  UNL1        0.0574
     13 C          63.4572   84.1114    9.6168 C.ar    1  UNL1        0.0037
     14 C          62.6003   85.1288   10.3101 C.ar    1  UNL1        0.0168
     15 C          62.3461   85.0160   11.7841 C.ar    1  UNL1        0.0994
     16 N          62.9489   83.8860   12.5648 N.ar    1  UNL1       -0.2104
     17 C          63.6157   81.0679   13.7348 C.3     1  UNL1        0.2542
     18 O          64.4086   81.7386   12.6523 O.3     1  UNL1       -0.4561
     19 C          64.3428   92.2953   11.8343 C.3     1  UNL1        0.0582
     20 C          65.8394   92.2541   11.9253 C.ar    1  UNL1        0.0045
     21 C          66.7916   92.1882   10.7681 C.ar    1  UNL1        0.0966
     22 N          68.1873   92.1650   11.3172 N.ar    1  UNL1       -0.2273
     23 C          68.0978   92.2166   12.8136 C.ar    1  UNL1        0.1404
     24 N          69.1500   92.2205   13.8826 N.ar    1  UNL1       -0.3356
     25 C          68.7512   92.2794   15.3273 C.ar    1  UNL1        0.1035
     26 C          67.3001   92.3345   15.7032 C.ar    1  UNL1        0.1572
     27 F          66.9012   92.3935   17.1480 F       1  UNL1       -0.2026
     28 C          66.2478   92.3306   14.6342 C.ar    1  UNL1        0.0339
     29 C          66.6466   92.2716   13.1895 C.ar    1  UNL1        0.0341
     30 H          70.1024   92.1844   13.6359 H       1  UNL1        0.1675
@<TRIPOS>BOND
     1    17    18    1
     2    18    11    1
     3    11    12   ar
     4    12    13   ar
     5    13    14   ar
     6    14    10    1
     7    10     8    1
     8     8     1    1
     9     1     2   ar
    10     2     3   ar
    11     3     4   ar
    12     4    19    1
    13    19    20    1
    14    20    21   ar
    15    21    22   ar
    16    22    23   ar
    17    23    24   ar
    18    24    25   ar
    19    25    26   ar
    20    26    27    1
    21    26    28   ar
    22    28    29   ar
    23     4     5   ar
    24     5     6    1
    25     5     7   ar
    26    14    15   ar
    27    15    16   ar
    28    16    11   ar
    29     7     1   ar
    30    29    20   ar
    31    29    23    1
    32     8     9    1
    33    24    30    1
@<TRIPOS>MOLECULE
*****
 30 33 0 0 0
SMALL
GASTEIGER

@<TRIPOS>ATOM
      1 C          63.8844   90.7238   12.4563 C.ar    1  UNL1        0.1311
      2 C          63.9164   89.3999   13.1609 C.ar    1  UNL1        0.0339
      3 C          63.1383   88.2402   12.6136 C.ar    1  UNL1        0.0027
      4 C          62.3283   88.4043   11.3619 C.ar    1  UNL1        0.0283
      5 C          62.2962   89.7281   10.6573 C.ar    1  UNL1        0.2196
      6 F          61.4862   89.8922    9.4056 F       1  UNL1       -0.1835
      7 N          63.0743   90.8879   11.2046 N.ar    1  UNL1       -0.2035
      8 N          64.6625   91.8836   13.0035 N.pl3   1  UNL1       -0.3144
      9 H          64.2269   92.5272   13.6080 H       1  UNL1        0.1485
     10 C          66.1041   92.0629   12.6298 C.3     1  UNL1        0.1169
     11 C          67.2683   95.1511    9.5709 C.ar    1  UNL1        0.2250
     12 C          67.5379   93.6987    9.3105 C.ar    1  UNL1        0.0574
     13 C          67.1498   92.6693   10.3302 C.ar    1  UNL1        0.0037
     14 C          66.4921   93.0924   11.6103 C.ar    1  UNL1        0.0168
     15 C          66.2226   94.5448   11.8707 C.ar    1  UNL1        0.0994
     16 N          66.6106   95.5742   10.8510 N.ar    1  UNL1       -0.2104
     17 C          66.6035   96.8298    7.7027 C.3     1  UNL1        0.2542
     18 O          67.6563   96.1806    8.5513 O.3     1  UNL1       -0.4561
     19 C          61.5501   87.2444   10.8146 C.3     1  UNL1        0.0582
     20 C          62.2692   86.0940   10.1747 C.ar    1  UNL1        0.0045
     21 C          62.5023   85.9077    8.7047 C.ar    1  UNL1        0.0966
     22 N          63.2585   84.6264    8.5140 N.ar    1  UNL1       -0.2273
     23 C          63.4928   84.0208    9.8662 C.ar    1  UNL1        0.1404
     24 N          64.1840   82.7606   10.2954 N.ar    1  UNL1       -0.3356
     25 C          64.2636   82.4075   11.7510 C.ar    1  UNL1        0.1035
     26 C          63.6522   83.3145   12.7774 C.ar    1  UNL1        0.1572
     27 F          63.7319   82.9612   14.2331 F       1  UNL1       -0.2026
     28 C          62.9611   84.5746   12.3482 C.ar    1  UNL1        0.0339
     29 C          62.8814   84.9278   10.8925 C.ar    1  UNL1        0.0341
     30 H          64.5853   82.1653    9.6217 H       1  UNL1        0.1675
@<TRIPOS>BOND
     1    17    18    1
     2    18    11    1
     3    11    12   ar
     4    12    13   ar
     5    13    14   ar
     6    14    10    1
     7    10     8    1
     8     8     1    1
     9     1     2   ar
    10     2     3   ar
    11     3     4   ar
    12     4    19    1
    13    19    20    1
    14    20    21   ar
    15    21    22   ar
    16    22    23   ar
    17    23    24   ar
    18    24    25   ar
    19    25    26   ar
    20    26    27    1
    21    26    28   ar
    22    28    29   ar
    23     4     5   ar
    24     5     6    1
    25     5     7   ar
    26    14    15   ar
    27    15    16   ar
    28    16    11   ar
    29     7     1   ar
    30    29    20   ar
    31    29    23    1
    32     8     9    1
    33    24    30    1
@<TRIPOS>MOLECULE
*****
 30 33 0 0 0
SMALL
GASTEIGER

@<TRIPOS>ATOM
      1 C          60.7508   87.2307    9.3046 C.ar    1  UNL1        0.1311
      2 C          60.9164   86.6930   10.6951 C.ar    1  UNL1        0.0339
      3 C          61.8741   85.5682   10.9551 C.ar    1  UNL1        0.0027
      4 C          62.6662   84.9811    9.8247 C.ar    1  UNL1        0.0283
      5 C          62.5006   85.5188    8.4342 C.ar    1  UNL1        0.2196
      6 F          63.2927   84.9316    7.3038 F       1  UNL1       -0.1835
      7 N          61.5429   86.6435    8.1742 N.ar    1  UNL1       -0.2035
      8 N          59.7932   88.3555    9.0445 N.pl3   1  UNL1       -0.3144
      9 H          58.9165   88.1710    8.6362 H       1  UNL1        0.1485
     10 C          60.1711   89.7613    9.4065 C.3     1  UNL1        0.1169
     11 C          63.2934   90.5110   12.5590 C.ar    1  UNL1        0.2250
     12 C          63.5888   90.8225   11.1218 C.ar    1  UNL1        0.0574
     13 C          62.5480   90.5726   10.0710 C.ar    1  UNL1        0.0037
     14 C          61.2118   90.0111   10.4574 C.ar    1  UNL1        0.0168
     15 C          60.9164   89.6996   11.8946 C.ar    1  UNL1        0.0994
     16 N          61.9572   89.9495   12.9454 N.ar    1  UNL1       -0.2104
     17 C          64.0277   90.4787   15.0510 C.3     1  UNL1        0.2542
     18 O          64.3341   90.7609   13.6099 O.3     1  UNL1       -0.4561
     19 C          63.6240   83.8562   10.0848 C.3     1  UNL1        0.0582
     20 C          63.4522   82.9903   11.2975 C.ar    1  UNL1        0.0045
     21 C          63.0926   81.5340   11.2972 C.ar    1  UNL1        0.0966
     22 N          63.0281   81.0723   12.7229 N.ar    1  UNL1       -0.2273
     23 C          63.3478   82.2432   13.6043 C.ar    1  UNL1        0.1404
     24 N          63.4342   82.3831   15.0952 N.ar    1  UNL1       -0.3356
     25 C          63.7826   83.7084   15.7052 C.ar    1  UNL1        0.1035
     26 C          64.0447   84.8938   14.8242 C.ar    1  UNL1        0.1572
     27 F          64.3932   86.2192   15.4342 F       1  UNL1       -0.2026
     28 C          63.9584   84.7539   13.3333 C.ar    1  UNL1        0.0339
     29 C          63.6100   83.4286   12.7233 C.ar    1  UNL1        0.0341
     30 H          63.2621   81.6051   15.6735 H       1  UNL1        0.1675
@<TRIPOS>BOND
     1    17    18    1
     2    18    11    1
     3    11    12   ar
     4    12    13   ar
     5    13    14   ar
     6    14    10    1
     7    10     8    1
     8     8     1    1
     9     1     2   ar
    10     2     3   ar
    11     3     4   ar
    12     4    19    1
    13    19    20    1
    14    20    21   ar
    15    21    22   ar
    16    22    23   ar
    17    23    24   ar
    18    24    25   ar
    19    25    26   ar
    20    26    27    1
    21    26    28   ar
    22    28    29   ar
    23     4     5   ar
    24     5     6    1
    25     5     7   ar
    26    14    15   ar
    27    15    16   ar
    28    16    11   ar
    29     7     1   ar
    30    29    20   ar
    31    29    23    1
    32     8     9    1
    33    24    30    1
@<TRIPOS>MOLECULE
*****
 30 33 0 0 0
SMALL
GASTEIGER

@<TRIPOS>ATOM
      1 C          63.2898   82.5947   11.7229 C.ar    1  UNL1        0.1311
      2 C          64.1148   82.5880   10.4701 C.ar    1  UNL1        0.0339
      3 C          63.9556   83.6868    9.4615 C.ar    1  UNL1        0.0027
      4 C          62.9716   84.7923    9.7057 C.ar    1  UNL1        0.0283
      5 C          62.1467   84.7990   10.9584 C.ar    1  UNL1        0.2196
      6 F          61.1627   85.9045   11.2026 F       1  UNL1       -0.1835
      7 N          62.3058   83.7002   11.9670 N.ar    1  UNL1       -0.2035
      8 N          63.4489   81.4960   12.7315 N.pl3   1  UNL1       -0.3144
      9 H          63.2605   80.5636   12.4776 H       1  UNL1        0.1485
     10 C          63.8951   81.8176   14.1271 C.3     1  UNL1        0.1169
     11 C          63.6570   86.0465   15.6469 C.ar    1  UNL1        0.2250
     12 C          64.8532   85.5983   14.8605 C.ar    1  UNL1        0.0574
     13 C          64.9325   84.1887   14.3540 C.ar    1  UNL1        0.0037
     14 C          63.8157   83.2272   14.6337 C.ar    1  UNL1        0.0168
     15 C          62.6195   83.6754   15.4200 C.ar    1  UNL1        0.0994
     16 N          62.5402   85.0850   15.9266 N.ar    1  UNL1       -0.2104
     17 C          62.8922   87.7476   17.4555 C.3     1  UNL1        0.2542
     18 O          63.5776   87.4560   16.1535 O.3     1  UNL1       -0.4561
     19 C          62.8125   85.8911    8.6970 C.3     1  UNL1        0.0582
     20 C          61.6429   86.8262    8.7847 C.ar    1  UNL1        0.0045
     21 C          60.3056   86.6288    8.1348 C.ar    1  UNL1        0.0966
     22 N          59.4416   87.8035    8.4863 N.ar    1  UNL1       -0.2273
     23 C          60.2449   88.7269    9.3535 C.ar    1  UNL1        0.1404
     24 N          59.9133   90.0396    9.9990 N.ar    1  UNL1       -0.3356
     25 C          60.9423   90.7483   10.8289 C.ar    1  UNL1        0.1035
     26 C          62.3028   90.1443   11.0134 C.ar    1  UNL1        0.1572
     27 F          63.3318   90.8531   11.8434 F       1  UNL1       -0.2026
     28 C          62.6344   88.8316   10.3679 C.ar    1  UNL1        0.0339
     29 C          61.6055   88.1229    9.5379 C.ar    1  UNL1        0.0341
     30 H          59.0203   90.4361    9.8779 H       1  UNL1        0.1675
@<TRIPOS>BOND
     1    17    18    1
     2    18    11    1
     3    11    12   ar
     4    12    13   ar
     5    13    14   ar
     6    14    10    1
     7    10     8    1
     8     8     1    1
     9     1     2   ar
    10     2     3   ar
    11     3     4   ar
    12     4    19    1
    13    19    20    1
    14    20    21   ar
    15    21    22   ar
    16    22    23   ar
    17    23    24   ar
    18    24    25   ar
    19    25    26   ar
    20    26    27    1
    21    26    28   ar
    22    28    29   ar
    23     4     5   ar
    24     5     6    1
    25     5     7   ar
    26    14    15   ar
    27    15    16   ar
    28    16    11   ar
    29     7     1   ar
    30    29    20   ar
    31    29    23    1
    32     8     9    1
    33    24    30    1
@<TRIPOS>MOLECULE
*****
 30 33 0 0 0
SMALL
GASTEIGER

@<TRIPOS>ATOM
      1 C          62.0697   88.9545   10.9289 C.ar    1  UNL1        0.1311
      2 C          62.2770   90.1967   10.1140 C.ar    1  UNL1        0.0339
      3 C          63.1939   91.2749   10.6105 C.ar    1  UNL1        0.0027
      4 C          63.9036   91.1110   11.9218 C.ar    1  UNL1        0.0283
      5 C          63.6964   89.8688   12.7367 C.ar    1  UNL1        0.2196
      6 F          64.4060   89.7050   14.0480 F       1  UNL1       -0.1835
      7 N          62.7794   88.7906   12.2402 N.ar    1  UNL1       -0.2035
      8 N          61.1528   87.8762   10.4325 N.pl3   1  UNL1       -0.3144
      9 H          60.1971   87.8957   10.6682 H       1  UNL1        0.1485
     10 C          61.6918   86.7681    9.5771 C.3     1  UNL1        0.1169
     11 C          63.6476   83.1958   11.4909 C.ar    1  UNL1        0.2250
     12 C          63.8738   83.4853   10.0366 C.ar    1  UNL1        0.0574
     13 C          63.2219   84.6761    9.3987 C.ar    1  UNL1        0.0037
     14 C          62.3437   85.5774   10.2151 C.ar    1  UNL1        0.0168
     15 C          62.1174   85.2879   11.6694 C.ar    1  UNL1        0.0994
     16 N          62.7694   84.0971   12.3073 N.ar    1  UNL1       -0.2104
     17 C          63.7089   81.4011   13.3685 C.3     1  UNL1        0.2542
     18 O          64.2994   82.0050   12.1289 O.3     1  UNL1       -0.4561
     19 C          64.8206   92.1894   12.4182 C.3     1  UNL1        0.0582
     20 C          66.0917   92.4912   11.6810 C.ar    1  UNL1        0.0045
     21 C          67.3671   91.7062   11.7647 C.ar    1  UNL1        0.0966
     22 N          68.3740   92.3609   10.8661 N.ar    1  UNL1       -0.2273
     23 C          67.7209   93.5505   10.2271 C.ar    1  UNL1        0.1404
     24 N          68.2285   94.5708    9.2518 N.ar    1  UNL1       -0.3356
     25 C          67.3254   95.6716    8.7801 C.ar    1  UNL1        0.1035
     26 C          65.9147   95.7521    9.2837 C.ar    1  UNL1        0.1572
     27 F          65.0116   96.8530    8.8119 F       1  UNL1       -0.2026
     28 C          65.4072   94.7319   10.2591 C.ar    1  UNL1        0.0339
     29 C          66.3103   93.6310   10.7308 C.ar    1  UNL1        0.0341
     30 H          69.1543   94.5179    8.9212 H       1  UNL1        0.1675
@<TRIPOS>BOND
     1    17    18    1
     2    18    11    1
     3    11    12   ar
     4    12    13   ar
     5    13    14   ar
     6    14    10    1
     7    10     8    1
     8     8     1    1
     9     1     2   ar
    10     2     3   ar
    11     3     4   ar
    12     4    19    1
    13    19    20    1
    14    20    21   ar
    15    21    22   ar
    16    22    23   ar
    17    23    24   ar
    18    24    25   ar
    19    25    26   ar
    20    26    27    1
    21    26    28   ar
    22    28    29   ar
    23     4     5   ar
    24     5     6    1
    25     5     7   ar
    26    14    15   ar
    27    15    16   ar
    28    16    11   ar
    29     7     1   ar
    30    29    20   ar
    31    29    23    1
    32     8     9    1
    33    24    30    1
@<TRIPOS>MOLECULE
*****
 30 33 0 0 0
SMALL
GASTEIGER

@<TRIPOS>ATOM
      1 C          63.5049   83.6717   11.3391 C.ar    1  UNL1        0.1311
      2 C          62.4048   84.4709   11.9726 C.ar    1  UNL1        0.0339
      3 C          61.6470   85.4789   11.1605 C.ar    1  UNL1        0.0027
      4 C          61.9892   85.6878    9.7151 C.ar    1  UNL1        0.0283
      5 C          63.0892   84.8887    9.0817 C.ar    1  UNL1        0.2196
      6 F          63.4314   85.0976    7.6362 F       1  UNL1       -0.1835
      7 N          63.8471   83.8806    9.8937 N.ar    1  UNL1       -0.2035
      8 N          64.2628   82.6636   12.1511 N.pl3   1  UNL1       -0.3144
      9 H          64.9900   82.1447   11.7374 H       1  UNL1        0.1485
     10 C          63.9127   82.4460   13.5934 C.3     1  UNL1        0.1169
     11 C          63.3355   85.9747   16.3256 C.ar    1  UNL1        0.2250
     12 C          64.5635   85.8822   15.4692 C.ar    1  UNL1        0.0574
     13 C          64.7559   84.7059   14.5585 C.ar    1  UNL1        0.0037
     14 C          63.7203   83.6222   14.5041 C.ar    1  UNL1        0.0168
     15 C          62.4922   83.7147   15.3605 C.ar    1  UNL1        0.0994
     16 N          62.2999   84.8909   16.2712 N.ar    1  UNL1       -0.2104
     17 C          63.1047   88.5394   16.6702 C.3     1  UNL1        0.2542
     18 O          63.1431   87.1509   17.2363 O.3     1  UNL1       -0.4561
     19 C          61.2313   86.6960    8.9030 C.3     1  UNL1        0.0582
     20 C          61.0431   88.0900    9.4239 C.ar    1  UNL1        0.0045
     21 C          60.1035   89.1192    8.8690 C.ar    1  UNL1        0.0966
     22 N          60.2412   90.3648    9.6933 N.ar    1  UNL1       -0.2273
     23 C          61.2659   90.1055   10.7576 C.ar    1  UNL1        0.1404
     24 N          61.8117   90.9679   11.8569 N.ar    1  UNL1       -0.3356
     25 C          62.8530   90.4243   12.7896 C.ar    1  UNL1        0.1035
     26 C          63.3486   89.0184   12.6231 C.ar    1  UNL1        0.1572
     27 F          64.3901   88.4748   13.5559 F       1  UNL1       -0.2026
     28 C          62.8028   88.1560   11.5239 C.ar    1  UNL1        0.0339
     29 C          61.7615   88.6995   10.5911 C.ar    1  UNL1        0.0341
     30 H          61.4864   91.8906   11.9662 H       1  UNL1        0.1675
@<TRIPOS>BOND
     1    17    18    1
     2    18    11    1
     3    11    12   ar
     4    12    13   ar
     5    13    14   ar
     6    14    10    1
     7    10     8    1
     8     8     1    1
     9     1     2   ar
    10     2     3   ar
    11     3     4   ar
    12     4    19    1
    13    19    20    1
    14    20    21   ar
    15    21    22   ar
    16    22    23   ar
    17    23    24   ar
    18    24    25   ar
    19    25    26   ar
    20    26    27    1
    21    26    28   ar
    22    28    29   ar
    23     4     5   ar
    24     5     6    1
    25     5     7   ar
    26    14    15   ar
    27    15    16   ar
    28    16    11   ar
    29     7     1   ar
    30    29    20   ar
    31    29    23    1
    32     8     9    1
    33    24    30    1
@<TRIPOS>MOLECULE
*****
 30 33 0 0 0
SMALL
GASTEIGER

@<TRIPOS>ATOM
      1 C          62.1759   89.6419   11.9436 C.ar    1  UNL1        0.1311
      2 C          62.6382   90.7296   11.0199 C.ar    1  UNL1        0.0339
      3 C          63.8789   91.5090   11.3410 C.ar    1  UNL1        0.0027
      4 C          64.6572   91.2009   12.5857 C.ar    1  UNL1        0.0283
      5 C          64.1949   90.1132   13.5094 C.ar    1  UNL1        0.2196
      6 F          64.9732   89.8050   14.7541 F       1  UNL1       -0.1835
      7 N          62.9542   89.3337   13.1883 N.ar    1  UNL1       -0.2035
      8 N          60.9352   88.8624   11.6227 N.pl3   1  UNL1       -0.3144
      9 H          60.1583   88.9033   12.2260 H       1  UNL1        0.1485
     10 C          60.8781   88.0205   10.3824 C.3     1  UNL1        0.1169
     11 C          63.3576   84.2768   10.0880 C.ar    1  UNL1        0.2250
     12 C          63.0652   85.0816    8.8564 C.ar    1  UNL1        0.0574
     13 C          62.2388   86.3295    8.9546 C.ar    1  UNL1        0.0037
     14 C          61.7046   86.7726   10.2844 C.ar    1  UNL1        0.0168
     15 C          61.9969   85.9679   11.5160 C.ar    1  UNL1        0.0994
     16 N          62.8234   84.7200   11.4178 N.ar    1  UNL1       -0.2104
     17 C          63.6850   81.7495   10.5933 C.3     1  UNL1        0.2542
     18 O          64.1840   83.0290    9.9899 O.3     1  UNL1       -0.4561
     19 C          65.8980   91.9804   12.9067 C.3     1  UNL1        0.0582
     20 C          66.2147   93.2332   12.1450 C.ar    1  UNL1        0.0045
     21 C          65.7998   94.6240   12.5237 C.ar    1  UNL1        0.0966
     22 N          66.3307   95.5654   11.4835 N.ar    1  UNL1       -0.2273
     23 C          67.0736   94.7564   10.4620 C.ar    1  UNL1        0.1404
     24 N          67.8061   95.1461    9.2123 N.ar    1  UNL1       -0.3356
     25 C          68.4669   94.0943    8.3715 C.ar    1  UNL1        0.1035
     26 C          68.3953   92.6529    8.7803 C.ar    1  UNL1        0.1572
     27 F          69.0561   91.6010    7.9395 F       1  UNL1       -0.2026
     28 C          67.6628   92.2632   10.0300 C.ar    1  UNL1        0.0339
     29 C          67.0019   93.3150   10.8708 C.ar    1  UNL1        0.0341
     30 H          67.8531   96.0921    8.9440 H       1  UNL1        0.1675
@<TRIPOS>BOND
     1    17    18    1
     2    18    11    1
     3    11    12   ar
     4    12    13   ar
     5    13    14   ar
     6    14    10    1
     7    10     8    1
     8     8     1    1
     9     1     2   ar
    10     2     3   ar
    11     3     4   ar
    12     4    19    1
    13    19    20    1
    14    20    21   ar
    15    21    22   ar
    16    22    23   ar
    17    23    24   ar
    18    24    25   ar
    19    25    26   ar
    20    26    27    1
    21    26    28   ar
    22    28    29   ar
    23     4     5   ar
    24     5     6    1
    25     5     7   ar
    26    14    15   ar
    27    15    16   ar
    28    16    11   ar
    29     7     1   ar
    30    29    20   ar
    31    29    23    1
    32     8     9    1
    33    24    30    1
