@<TRIPOS>MOLECULE
*****
 32 36 0 0 0
SMALL
GASTEIGER

@<TRIPOS>ATOM
      1 C          66.2565   93.3312   11.5097 C.ar    1  UNL1        0.1663
      2 N          65.2221   92.2470   11.5762 N.ar    1  UNL1       -0.2222
      3 C          65.0182   91.8888   13.0185 C.ar    1  UNL1        0.1305
      4 C          64.1226   90.8884   13.6873 C.ar    1  UNL1        0.0765
      5 C          64.1356   90.7509   15.1810 C.ar    1  UNL1        0.0664
      6 BR         63.2400   89.7505   15.8498 Br      1  UNL1       -0.0461
      7 C          65.0439   91.6137   16.0057 C.ar    1  UNL1        0.0816
      8 N          65.9395   92.6140   15.3370 N.ar    1  UNL1       -0.3357
      9 C          65.9266   92.7516   13.8434 C.ar    1  UNL1        0.1613
     10 N          66.6920   93.6430   12.9109 N.ar    1  UNL1       -0.2081
     11 H          66.5357   93.1803   15.8783 H       1  UNL1        0.1675
     12 C          68.3549   92.0291    9.3764 C.3     1  UNL1        0.0541
     13 C          67.7307   93.3896    9.2807 C.ar    1  UNL1        0.0830
     14 N          67.9613   94.3905    8.1876 N.ar    1  UNL1       -0.1738
     15 N          67.1394   95.6077    8.4925 N.ar    1  UNL1       -0.2531
     16 C          67.0686   96.8546    7.6618 C.3     1  UNL1        0.1533
     17 C          66.4007   95.3590    9.7742 C.ar    1  UNL1        0.0601
     18 C          65.4615   96.3135   10.4500 C.3     1  UNL1        0.0518
     19 C          66.7661   93.9881   10.2613 C.ar    1  UNL1        0.0642
     20 N          63.2142   90.0256   12.8625 N.pl3   1  UNL1       -0.3030
     21 C          62.0227   90.6289   12.1796 C.3     1  UNL1        0.1082
     22 C          61.1143   89.7660   11.3549 C.3     1  UNL1        0.0941
     23 N          61.3974   88.2998   11.2130 N.3     1  UNL1       -0.2659
     24 C          62.5889   87.6965   11.8959 C.3     1  UNL1        0.0941
     25 C          63.4973   88.5594   12.7206 C.3     1  UNL1        0.1082
     26 C          60.4890   87.4369   10.3883 C.3     1  UNL1        0.1008
     27 C          61.0535   86.5980    9.2802 C.ar    1  UNL1        0.0130
     28 C          62.4748   86.1234    9.3482 C.ar    1  UNL1        0.0002
     29 C          63.0393   85.2846    8.2402 C.ar    1  UNL1        0.0204
     30 C          62.1824   84.9203    7.0642 C.ar    1  UNL1        0.0989
     31 N          60.7611   85.3949    6.9962 N.ar    1  UNL1       -0.2426
     32 C          60.1966   86.2338    8.1041 C.ar    1  UNL1        0.0959
@<TRIPOS>BOND
     1    12    13    1
     2    13    14   ar
     3    14    15   ar
     4    15    16    1
     5    15    17   ar
     6    17    18    1
     7    17    19   ar
     8    19     1    1
     9     1     2   ar
    10     2     3   ar
    11     3     4   ar
    12     4    20    1
    13    20    21    1
    14    21    22    1
    15    22    23    1
    16    23    26    1
    17    26    27    1
    18    27    28   ar
    19    28    29   ar
    20    29    30   ar
    21    30    31   ar
    22    31    32   ar
    23    23    24    1
    24    24    25    1
    25     4     5   ar
    26     5     6    1
    27     5     7   ar
    28     7     8   ar
    29     8     9   ar
    30     9    10   ar
    31    19    13   ar
    32    10     1   ar
    33     9     3    1
    34    25    20    1
    35    32    27   ar
    36     8    11    1
@<TRIPOS>MOLECULE
*****
 32 36 0 0 0
SMALL
GASTEIGER

@<TRIPOS>ATOM
      1 C          66.3084   93.4334   11.9277 C.ar    1  UNL1        0.1663
      2 N          65.4921   92.1793   12.0328 N.ar    1  UNL1       -0.2222
      3 C          65.1737   91.9536   13.4812 C.ar    1  UNL1        0.1305
      4 C          64.3997   90.8772   14.1827 C.ar    1  UNL1        0.0765
      5 C          64.2453   90.9153   15.6743 C.ar    1  UNL1        0.0664
      6 BR         63.4712   89.8388   16.3759 Br      1  UNL1       -0.0461
      7 C          64.8648   92.0297   16.4642 C.ar    1  UNL1        0.0816
      8 N          65.6388   93.1062   15.7627 N.ar    1  UNL1       -0.3357
      9 C          65.7932   93.0681   14.2712 C.ar    1  UNL1        0.1613
     10 N          66.4945   93.9827   13.3111 N.ar    1  UNL1       -0.2081
     11 H          66.0454   93.8377   16.2812 H       1  UNL1        0.1675
     12 C          68.1789   91.9135    9.7277 C.3     1  UNL1        0.0541
     13 C          67.7042   93.3342    9.6503 C.ar    1  UNL1        0.0830
     14 N          68.0060   94.3059    8.5481 N.ar    1  UNL1       -0.1738
     15 N          67.3327   95.6050    8.8781 N.ar    1  UNL1       -0.2531
     16 C          67.3706   96.8536    8.0477 C.3     1  UNL1        0.1533
     17 C          66.6148   95.4363   10.1843 C.ar    1  UNL1        0.0601
     18 C          65.8088   96.4866   10.8895 C.3     1  UNL1        0.0518
     19 C          66.8444   94.0329   10.6615 C.ar    1  UNL1        0.0642
     20 N          63.7802   89.7626   13.3928 N.pl3   1  UNL1       -0.3030
     21 C          64.1222   88.3373   13.7113 C.3     1  UNL1        0.1082
     22 C          63.5026   87.2228   12.9214 C.3     1  UNL1        0.0941
     23 N          62.5410   87.5337   11.8129 N.3     1  UNL1       -0.2659
     24 C          62.1990   88.9590   11.4943 C.3     1  UNL1        0.0941
     25 C          62.8186   90.0734   12.2843 C.3     1  UNL1        0.1082
     26 C          61.9214   86.4192   11.0229 C.3     1  UNL1        0.1008
     27 C          62.5529   85.0585   11.0231 C.ar    1  UNL1        0.0130
     28 C          63.2861   84.5719    9.8084 C.ar    1  UNL1        0.0002
     29 C          63.9176   83.2113    9.8084 C.ar    1  UNL1        0.0204
     30 C          63.8159   82.3374   11.0233 C.ar    1  UNL1        0.0989
     31 N          63.0827   82.8240   12.2380 N.ar    1  UNL1       -0.2426
     32 C          62.4512   84.1846   12.2380 C.ar    1  UNL1        0.0959
@<TRIPOS>BOND
     1    12    13    1
     2    13    14   ar
     3    14    15   ar
     4    15    16    1
     5    15    17   ar
     6    17    18    1
     7    17    19   ar
     8    19     1    1
     9     1     2   ar
    10     2     3   ar
    11     3     4   ar
    12     4    20    1
    13    20    21    1
    14    21    22    1
    15    22    23    1
    16    23    26    1
    17    26    27    1
    18    27    28   ar
    19    28    29   ar
    20    29    30   ar
    21    30    31   ar
    22    31    32   ar
    23    23    24    1
    24    24    25    1
    25     4     5   ar
    26     5     6    1
    27     5     7   ar
    28     7     8   ar
    29     8     9   ar
    30     9    10   ar
    31    19    13   ar
    32    10     1   ar
    33     9     3    1
    34    25    20    1
    35    32    27   ar
    36     8    11    1
@<TRIPOS>MOLECULE
*****
 32 36 0 0 0
SMALL
GASTEIGER

@<TRIPOS>ATOM
      1 C          63.0972   90.4729   11.8343 C.ar    1  UNL1        0.1663
      2 N          63.0670   89.0260   11.4401 N.ar    1  UNL1       -0.2222
      3 C          61.9790   88.8452   10.4235 C.ar    1  UNL1        0.1305
      4 C          61.4901   87.6372    9.6806 C.ar    1  UNL1        0.0765
      5 C          60.3589   87.7645    8.7037 C.ar    1  UNL1        0.0664
      6 BR         59.8700   86.5564    7.9608 Br      1  UNL1       -0.0461
      7 C          59.7167   89.0996    8.4697 C.ar    1  UNL1        0.0816
      8 N          60.2056   90.3076    9.2125 N.ar    1  UNL1       -0.3357
      9 C          61.3367   90.1803   10.1894 C.ar    1  UNL1        0.1613
     10 N          62.0278   91.1864   11.0613 N.ar    1  UNL1       -0.2081
     11 H          59.7840   91.1839    9.0588 H       1  UNL1        0.1675
     12 C          63.2556   89.7790   15.0191 C.3     1  UNL1        0.0541
     13 C          64.1052   90.7779   14.2911 C.ar    1  UNL1        0.0830
     14 N          65.1769   91.6333   14.8991 N.ar    1  UNL1       -0.1738
     15 N          65.7666   92.4810   13.8111 N.ar    1  UNL1       -0.2531
     16 C          66.8697   93.4840   13.9748 C.3     1  UNL1        0.1533
     17 C          65.0592   92.1495   12.5305 C.ar    1  UNL1        0.0601
     18 C          65.3309   92.7628   11.1889 C.3     1  UNL1        0.0518
     19 C          64.0325   91.0969   12.8272 C.ar    1  UNL1        0.0642
     20 N          62.1324   86.3019    9.9147 N.pl3   1  UNL1       -0.3030
     21 C          62.9190   85.6457    8.8190 C.3     1  UNL1        0.1082
     22 C          63.5612   84.3105    9.0531 C.3     1  UNL1        0.0941
     23 N          63.4167   83.6316   10.3829 N.3     1  UNL1       -0.2659
     24 C          62.6300   84.2878   11.4785 C.3     1  UNL1        0.0941
     25 C          61.9878   85.6230   11.2444 C.3     1  UNL1        0.1082
     26 C          64.0589   82.2964   10.6170 C.3     1  UNL1        0.1008
     27 C          63.6325   81.4530   11.7819 C.ar    1  UNL1        0.0130
     28 C          62.7244   80.2789   11.5653 C.ar    1  UNL1        0.0002
     29 C          62.2980   79.4355   12.7301 C.ar    1  UNL1        0.0204
     30 C          62.7797   79.7662   14.1116 C.ar    1  UNL1        0.0989
     31 N          63.6878   80.9403   14.3282 N.ar    1  UNL1       -0.2426
     32 C          64.1142   81.7837   13.1634 C.ar    1  UNL1        0.0959
@<TRIPOS>BOND
     1    12    13    1
     2    13    14   ar
     3    14    15   ar
     4    15    16    1
     5    15    17   ar
     6    17    18    1
     7    17    19   ar
     8    19     1    1
     9     1     2   ar
    10     2     3   ar
    11     3     4   ar
    12     4    20    1
    13    20    21    1
    14    21    22    1
    15    22    23    1
    16    23    26    1
    17    26    27    1
    18    27    28   ar
    19    28    29   ar
    20    29    30   ar
    21    30    31   ar
    22    31    32   ar
    23    23    24    1
    24    24    25    1
    25     4     5   ar
    26     5     6    1
    27     5     7   ar
    28     7     8   ar
    29     8     9   ar
    30     9    10   ar
    31    19    13   ar
    32    10     1   ar
    33     9     3    1
    34    25    20    1
    35    32    27   ar
    36     8    11    1
@<TRIPOS>MOLECULE
*****
 32 36 0 0 0
SMALL
GASTEIGER

@<TRIPOS>ATOM
      1 C          66.0123   93.5335   12.4834 C.ar    1  UNL1        0.1663
      2 N          65.2573   92.2373   12.4827 N.ar    1  UNL1       -0.2222
      3 C          64.9200   91.8968   13.9040 C.ar    1  UNL1        0.1305
      4 C          64.1857   90.7383   14.5114 C.ar    1  UNL1        0.0765
      5 C          63.9980   90.6655   15.9978 C.ar    1  UNL1        0.0664
      6 BR         63.2637   89.5070   16.6052 Br      1  UNL1       -0.0461
      7 C          64.5444   91.7511   16.8768 C.ar    1  UNL1        0.0816
      8 N          65.2786   92.9096   16.2695 N.ar    1  UNL1       -0.3357
      9 C          65.4664   92.9824   14.7831 C.ar    1  UNL1        0.1613
     10 N          66.1416   93.9939   13.9051 N.ar    1  UNL1       -0.2081
     11 H          65.6373   93.6221   16.8465 H       1  UNL1        0.1675
     12 C          65.8509   96.7437   11.9200 C.3     1  UNL1        0.0541
     13 C          66.4704   95.7200   11.0156 C.ar    1  UNL1        0.0830
     14 N          67.1246   95.9921    9.6935 N.ar    1  UNL1       -0.1738
     15 N          67.6031   94.6846    9.1352 N.ar    1  UNL1       -0.2531
     16 C          68.3150   94.4913    7.8293 C.3     1  UNL1        0.1533
     17 C          67.2447   93.6044   10.1125 C.ar    1  UNL1        0.0601
     18 C          67.5353   92.1413    9.9551 C.3     1  UNL1        0.0518
     19 C          66.5447   94.2443   11.2746 C.ar    1  UNL1        0.0642
     20 N          63.6392   89.6526   13.6323 N.pl3   1  UNL1       -0.3030
     21 C          62.5894   89.9727   12.6098 C.3     1  UNL1        0.1082
     22 C          62.0430   88.8869   11.7309 C.3     1  UNL1        0.0941
     23 N          62.5463   87.4812   11.8744 N.3     1  UNL1       -0.2659
     24 C          63.5961   87.1612   12.8969 C.3     1  UNL1        0.0941
     25 C          64.1425   88.2469   13.7759 C.3     1  UNL1        0.1082
     26 C          61.9999   86.3955   10.9954 C.3     1  UNL1        0.1008
     27 C          62.5843   85.0153   11.0570 C.ar    1  UNL1        0.0130
     28 C          63.3264   84.4617    9.8768 C.ar    1  UNL1        0.0002
     29 C          63.9108   83.0816    9.9383 C.ar    1  UNL1        0.0204
     30 C          63.7530   82.2551   11.1801 C.ar    1  UNL1        0.0989
     31 N          63.0110   82.8087   12.3603 N.ar    1  UNL1       -0.2426
     32 C          62.4266   84.1888   12.2988 C.ar    1  UNL1        0.0959
@<TRIPOS>BOND
     1    12    13    1
     2    13    14   ar
     3    14    15   ar
     4    15    16    1
     5    15    17   ar
     6    17    18    1
     7    17    19   ar
     8    19     1    1
     9     1     2   ar
    10     2     3   ar
    11     3     4   ar
    12     4    20    1
    13    20    21    1
    14    21    22    1
    15    22    23    1
    16    23    26    1
    17    26    27    1
    18    27    28   ar
    19    28    29   ar
    20    29    30   ar
    21    30    31   ar
    22    31    32   ar
    23    23    24    1
    24    24    25    1
    25     4     5   ar
    26     5     6    1
    27     5     7   ar
    28     7     8   ar
    29     8     9   ar
    30     9    10   ar
    31    19    13   ar
    32    10     1   ar
    33     9     3    1
    34    25    20    1
    35    32    27   ar
    36     8    11    1
@<TRIPOS>MOLECULE
*****
 32 36 0 0 0
SMALL
GASTEIGER

@<TRIPOS>ATOM
      1 C          66.0622   93.5620   12.2824 C.ar    1  UNL1        0.1663
      2 N          65.1685   92.3573   12.2911 N.ar    1  UNL1       -0.2222
      3 C          64.9091   91.9829   13.7203 C.ar    1  UNL1        0.1305
      4 C          64.0998   90.8815   14.3382 C.ar    1  UNL1        0.0765
      5 C          64.0241   90.7533   15.8309 C.ar    1  UNL1        0.0664
      6 BR         63.2147   89.6518   16.4489 Br      1  UNL1       -0.0461
      7 C          64.7575   91.7265   16.7054 C.ar    1  UNL1        0.0816
      8 N          65.5668   92.8279   16.0874 N.ar    1  UNL1       -0.3357
      9 C          65.6426   92.9561   14.5949 C.ar    1  UNL1        0.1613
     10 N          66.3553   93.9320   13.7062 N.ar    1  UNL1       -0.2081
     11 H          66.0482   93.4666   16.6615 H       1  UNL1        0.1675
     12 C          65.9040   96.7736   11.7261 C.3     1  UNL1        0.0541
     13 C          66.5005   95.7482   10.8082 C.ar    1  UNL1        0.0830
     14 N          67.1291   96.0189    9.4734 N.ar    1  UNL1       -0.1738
     15 N          67.5903   94.7100    8.9041 N.ar    1  UNL1       -0.2531
     16 C          68.2748   94.5150    7.5838 C.3     1  UNL1        0.1533
     17 C          67.2468   93.6303    9.8872 C.ar    1  UNL1        0.0601
     18 C          67.5275   92.1660    9.7223 C.3     1  UNL1        0.0518
     19 C          66.5733   94.2719   11.0639 C.ar    1  UNL1        0.0642
     20 N          63.3663   89.9083   13.4637 N.pl3   1  UNL1       -0.3030
     21 C          62.1024   90.3261   12.7724 C.3     1  UNL1        0.1082
     22 C          61.3690   89.3528   11.8978 C.3     1  UNL1        0.0941
     23 N          61.8994   87.9618   11.7147 N.3     1  UNL1       -0.2659
     24 C          63.1633   87.5439   12.4060 C.3     1  UNL1        0.0941
     25 C          63.8968   88.5172   13.2805 C.3     1  UNL1        0.1082
     26 C          61.1660   86.9885   10.8402 C.3     1  UNL1        0.1008
     27 C          60.5206   87.4596    9.5706 C.ar    1  UNL1        0.0130
     28 C          59.9233   86.4656    8.6192 C.ar    1  UNL1        0.0002
     29 C          59.2780   86.9366    7.3497 C.ar    1  UNL1        0.0204
     30 C          59.2300   88.4017    7.0316 C.ar    1  UNL1        0.0989
     31 N          59.8273   89.3957    7.9830 N.ar    1  UNL1       -0.2426
     32 C          60.4727   88.9247    9.2525 C.ar    1  UNL1        0.0959
@<TRIPOS>BOND
     1    12    13    1
     2    13    14   ar
     3    14    15   ar
     4    15    16    1
     5    15    17   ar
     6    17    18    1
     7    17    19   ar
     8    19     1    1
     9     1     2   ar
    10     2     3   ar
    11     3     4   ar
    12     4    20    1
    13    20    21    1
    14    21    22    1
    15    22    23    1
    16    23    26    1
    17    26    27    1
    18    27    28   ar
    19    28    29   ar
    20    29    30   ar
    21    30    31   ar
    22    31    32   ar
    23    23    24    1
    24    24    25    1
    25     4     5   ar
    26     5     6    1
    27     5     7   ar
    28     7     8   ar
    29     8     9   ar
    30     9    10   ar
    31    19    13   ar
    32    10     1   ar
    33     9     3    1
    34    25    20    1
    35    32    27   ar
    36     8    11    1
@<TRIPOS>MOLECULE
*****
 32 36 0 0 0
SMALL
GASTEIGER

@<TRIPOS>ATOM
      1 C          63.1184   84.6447   12.5939 C.ar    1  UNL1        0.1663
      2 N          62.4628   85.6367   11.6796 N.ar    1  UNL1       -0.2222
      3 C          62.8392   87.0129   12.1426 C.ar    1  UNL1        0.1305
      4 C          62.4879   88.3767   11.6262 C.ar    1  UNL1        0.0765
      5 C          63.0249   89.5989   12.3102 C.ar    1  UNL1        0.0664
      6 BR         62.6735   90.9628   11.7937 Br      1  UNL1       -0.0461
      7 C          63.9131   89.4574   13.5105 C.ar    1  UNL1        0.0816
      8 N          64.2644   88.0937   14.0270 N.ar    1  UNL1       -0.3357
      9 C          63.7275   86.8714   13.3430 C.ar    1  UNL1        0.1613
     10 N          63.9001   85.4077   13.6220 N.ar    1  UNL1       -0.2081
     11 H          64.8474   88.0008   14.8149 H       1  UNL1        0.1675
     12 C          64.0574   82.8143   10.0607 C.3     1  UNL1        0.0541
     13 C          63.4429   82.3103   11.3328 C.ar    1  UNL1        0.0830
     14 N          63.1521   80.8765   11.6638 N.ar    1  UNL1       -0.1738
     15 N          62.5407   80.8316   13.0329 N.ar    1  UNL1       -0.2531
     16 C          62.0948   79.5974   13.7592 C.3     1  UNL1        0.1533
     17 C          62.4537   82.2378   13.5479 C.ar    1  UNL1        0.0601
     18 C          61.9054   82.6565   14.8798 C.3     1  UNL1        0.0518
     19 C          63.0113   83.1516   12.4972 C.ar    1  UNL1        0.0642
     20 N          61.5996   88.5183   10.4257 N.pl3   1  UNL1       -0.3030
     21 C          61.6085   87.4651    9.3577 C.3     1  UNL1        0.1082
     22 C          60.7202   87.6068    8.1574 C.3     1  UNL1        0.0941
     23 N          59.8231   88.8016    8.0250 N.3     1  UNL1       -0.2659
     24 C          59.8142   89.8548    9.0930 C.3     1  UNL1        0.0941
     25 C          60.7025   89.7131   10.2934 C.3     1  UNL1        0.1082
     26 C          58.9349   88.9433    6.8247 C.3     1  UNL1        0.1008
     27 C          59.0981   90.1172    5.9051 C.ar    1  UNL1        0.0130
     28 C          60.4621   90.4992    5.4115 C.ar    1  UNL1        0.0002
     29 C          60.6254   91.6730    4.4921 C.ar    1  UNL1        0.0204
     30 C          59.4247   92.4649    4.0662 C.ar    1  UNL1        0.0989
     31 N          58.0608   92.0828    4.5599 N.ar    1  UNL1       -0.2426
     32 C          57.8974   90.9090    5.4793 C.ar    1  UNL1        0.0959
@<TRIPOS>BOND
     1    12    13    1
     2    13    14   ar
     3    14    15   ar
     4    15    16    1
     5    15    17   ar
     6    17    18    1
     7    17    19   ar
     8    19     1    1
     9     1     2   ar
    10     2     3   ar
    11     3     4   ar
    12     4    20    1
    13    20    21    1
    14    21    22    1
    15    22    23    1
    16    23    26    1
    17    26    27    1
    18    27    28   ar
    19    28    29   ar
    20    29    30   ar
    21    30    31   ar
    22    31    32   ar
    23    23    24    1
    24    24    25    1
    25     4     5   ar
    26     5     6    1
    27     5     7   ar
    28     7     8   ar
    29     8     9   ar
    30     9    10   ar
    31    19    13   ar
    32    10     1   ar
    33     9     3    1
    34    25    20    1
    35    32    27   ar
    36     8    11    1
