@<TRIPOS>MOLECULE
*****
 35 38 0 0 0
SMALL
GASTEIGER

@<TRIPOS>ATOM
      1 C          63.6434   87.0946   16.0645 C.3     1  UNL1        0.1812
      2 O          64.2415   87.2394   14.6966 O.3     1  UNL1       -0.3784
      3 H          64.6035   86.3863   14.4100 H       1  UNL1        0.2106
      4 C          63.0452   86.9497   17.4323 C.3     1  UNL1        0.4197
      5 F          62.4469   86.8049   18.8003 F       1  UNL1       -0.1676
      6 F          63.9653   85.7986   17.7128 F       1  UNL1       -0.1676
      7 F          62.1251   88.1007   17.1519 F       1  UNL1       -0.1676
      8 C          64.0255   85.6441   16.0780 C.3     1  UNL1        0.0398
      9 C          63.6906   84.7693   14.9065 C.3     1  UNL1        0.0212
     10 C          65.1323   84.7716   14.4925 C.3     1  UNL1        0.0044
     11 C          62.2488   84.7669   15.3204 C.3     1  UNL1        0.0044
     12 C          63.0139   86.0040   12.2574 C.3     1  UNL1        0.0307
     13 C          63.0173   84.5118   12.4104 C.ar    1  UNL1       -0.0257
     14 C          62.6824   83.6370   11.2388 C.ar    1  UNL1       -0.0023
     15 C          62.6858   82.1449   11.3918 C.ar    1  UNL1        0.0293
     16 C          63.0241   81.5274   12.7164 C.ar    1  UNL1        0.1398
     17 F          63.0275   80.0353   12.8693 F       1  UNL1       -0.2042
     18 C          63.3591   82.4022   13.8879 C.ar    1  UNL1        0.0250
     19 C          63.3557   83.8945   13.7349 C.ar    1  UNL1       -0.0244
     20 C          63.2612   88.5450   16.0509 C.3     1  UNL1        0.0811
     21 C          63.5876   89.3954   14.8593 C.2     1  UNL1        0.0614
     22 C          64.7005   90.3972   14.7692 C.2     1  UNL1        0.0163
     23 C          64.6592   91.0144   13.4027 C.2     1  UNL1        0.0264
     24 C          65.5111   92.0611   12.7480 C.2     1  UNL1        0.0903
     25 C          65.2245   92.4876   11.3386 C.2     1  UNL1        0.3192
     26 N          64.0862   91.8673   10.5841 N.2     1  UNL1       -0.0585
     27 C          63.2343   90.8206   11.2389 C.3     1  UNL1        0.3085
     28 C          63.5208   90.3941   12.6481 C.2     1  UNL1        0.1121
     29 N          62.8585   89.3935   13.5484 N.2     1  UNL1       -0.2495
     30 N          66.0764   93.5343   10.6839 N.pl3   1  UNL1       -0.1860
     31 C          67.2081   93.1272    9.7874 C.3     1  UNL1        0.2346
     32 C          68.0600   94.1739    9.1326 C.3     1  UNL1        0.1929
     33 O          67.7802   95.6277    9.3744 O.3     1  UNL1       -0.3449
     34 C          66.6486   96.0346   10.2709 C.3     1  UNL1        0.1929
     35 C          65.7967   94.9879   10.9256 C.3     1  UNL1        0.2346
@<TRIPOS>BOND
     1    12    13    1
     2    13    14   ar
     3    14    15   ar
     4    15    16   ar
     5    16    17    1
     6    16    18   ar
     7    18    19   ar
     8    19     9    1
     9     9    10    1
    10     9    11    1
    11     9     8    1
    12     8     1    1
    13     1     2    1
    14     1    20    1
    15    20    21    1
    16    21    22    2
    17    22    23    1
    18    23    24    2
    19    24    25    1
    20    25    30    1
    21    30    31    1
    22    31    32    1
    23    32    33    1
    24    33    34    1
    25    34    35    1
    26    25    26    2
    27    26    27    1
    28    27    28    1
    29    28    29    2
    30     1     4    1
    31     4     5    1
    32     4     6    1
    33     4     7    1
    34    19    13   ar
    35    29    21    1
    36    28    23    1
    37    35    30    1
    38     2     3    1
@<TRIPOS>MOLECULE
*****
 35 38 0 0 0
SMALL
GASTEIGER

@<TRIPOS>ATOM
      1 C          61.4034   87.5078    9.3781 C.3     1  UNL1        0.1812
      2 O          62.8373   87.6922    9.7779 O.3     1  UNL1       -0.3784
      3 H          63.3039   86.8446    9.7082 H       1  UNL1        0.2106
      4 C          59.9695   87.3235    8.9783 C.3     1  UNL1        0.4197
      5 F          58.5355   87.1391    8.5784 F       1  UNL1       -0.1676
      6 F          59.5336   88.1097   10.1791 F       1  UNL1       -0.1676
      7 F          60.4054   86.5373    7.7775 F       1  UNL1       -0.1676
      8 C          61.6617   86.0525    9.1225 C.3     1  UNL1        0.0398
      9 C          62.2075   85.1840   10.2170 C.3     1  UNL1        0.0212
     10 C          61.2341   85.7908   11.1837 C.3     1  UNL1        0.0044
     11 C          63.1808   84.5773    9.2503 C.3     1  UNL1        0.0044
     12 C          63.3913   86.4338   12.6740 C.3     1  UNL1        0.0307
     13 C          63.3451   84.9405   12.5400 C.ar    1  UNL1       -0.0257
     14 C          63.8908   84.0721   13.6346 C.ar    1  UNL1       -0.0023
     15 C          63.8446   82.5788   13.5007 C.ar    1  UNL1        0.0293
     16 C          63.2527   81.9539   12.2722 C.ar    1  UNL1        0.1398
     17 F          63.2065   80.4606   12.1383 F       1  UNL1       -0.2042
     18 C          62.7070   82.8223   11.1776 C.ar    1  UNL1        0.0250
     19 C          62.7532   84.3156   11.3116 C.ar    1  UNL1       -0.0244
     20 C          61.1450   88.9631    9.6337 C.3     1  UNL1        0.0811
     21 C          62.1995   89.8091   10.2835 C.2     1  UNL1        0.0614
     22 C          62.7798   89.5990   11.6507 C.2     1  UNL1        0.0163
     23 C          63.7978   90.6739   11.8924 C.2     1  UNL1        0.0264
     24 C          64.6866   90.9694   13.0641 C.2     1  UNL1        0.0903
     25 C          65.6242   92.1394   13.0179 C.2     1  UNL1        0.3192
     26 N          65.6731   93.0138   11.8001 N.2     1  UNL1       -0.0585
     27 C          64.7843   92.7183   10.6285 C.3     1  UNL1        0.3085
     28 C          63.8467   91.5484   10.6746 C.2     1  UNL1        0.1121
     29 N          62.8588   91.0139    9.6802 N.2     1  UNL1       -0.2495
     30 N          66.5130   92.4349   14.1895 N.pl3   1  UNL1       -0.1860
     31 C          67.9723   92.7071   13.9740 C.3     1  UNL1        0.2346
     32 C          68.8611   93.0026   15.1457 C.3     1  UNL1        0.1929
     33 O          68.2906   93.0259   16.5328 O.3     1  UNL1       -0.3449
     34 C          66.8314   92.7536   16.7482 C.3     1  UNL1        0.1929
     35 C          65.9426   92.4581   15.5766 C.3     1  UNL1        0.2346
@<TRIPOS>BOND
     1    12    13    1
     2    13    14   ar
     3    14    15   ar
     4    15    16   ar
     5    16    17    1
     6    16    18   ar
     7    18    19   ar
     8    19     9    1
     9     9    10    1
    10     9    11    1
    11     9     8    1
    12     8     1    1
    13     1     2    1
    14     1    20    1
    15    20    21    1
    16    21    22    2
    17    22    23    1
    18    23    24    2
    19    24    25    1
    20    25    30    1
    21    30    31    1
    22    31    32    1
    23    32    33    1
    24    33    34    1
    25    34    35    1
    26    25    26    2
    27    26    27    1
    28    27    28    1
    29    28    29    2
    30     1     4    1
    31     4     5    1
    32     4     6    1
    33     4     7    1
    34    19    13   ar
    35    29    21    1
    36    28    23    1
    37    35    30    1
    38     2     3    1
@<TRIPOS>MOLECULE
*****
 35 38 0 0 0
SMALL
GASTEIGER

@<TRIPOS>ATOM
      1 C          61.3685   88.1325    9.3521 C.3     1  UNL1        0.1812
      2 O          62.7467   87.9736    9.9223 O.3     1  UNL1       -0.3784
      3 H          63.0746   87.0809    9.7316 H       1  UNL1        0.2106
      4 C          59.9903   88.2914    8.7818 C.3     1  UNL1        0.4197
      5 F          58.6120   88.4503    8.2115 F       1  UNL1       -0.1676
      6 F          59.4965   88.7801   10.1113 F       1  UNL1       -0.1676
      7 F          60.4840   87.8028    7.4524 F       1  UNL1       -0.1676
      8 C          61.4190   86.7244    8.8376 C.3     1  UNL1        0.0398
      9 C          62.1155   85.6600    9.6326 C.3     1  UNL1        0.0212
     10 C          63.0681   85.4345    8.4960 C.3     1  UNL1        0.0044
     11 C          61.1630   85.8854   10.7691 C.3     1  UNL1        0.0044
     12 C          63.0476   86.2410   12.4243 C.3     1  UNL1        0.0307
     13 C          63.2781   84.8861   11.8233 C.ar    1  UNL1       -0.0257
     14 C          63.9747   83.8217   12.6183 C.ar    1  UNL1       -0.0023
     15 C          64.2052   82.4669   12.0174 C.ar    1  UNL1        0.0293
     16 C          63.7392   82.1763   10.6215 C.ar    1  UNL1        0.1398
     17 F          63.9698   80.8215   10.0205 F       1  UNL1       -0.2042
     18 C          63.0427   83.2407    9.8265 C.ar    1  UNL1        0.0250
     19 C          62.8121   84.5956   10.4275 C.ar    1  UNL1       -0.0244
     20 C          61.3180   89.5406    9.8665 C.3     1  UNL1        0.0811
     21 C          62.1796   89.9471   11.0251 C.2     1  UNL1        0.0614
     22 C          63.4284   90.7747   10.9476 C.2     1  UNL1        0.0163
     23 C          63.9643   90.9365   12.3392 C.2     1  UNL1        0.0264
     24 C          65.1692   91.6523   12.8738 C.2     1  UNL1        0.0903
     25 C          65.4566   91.6406   14.3461 C.2     1  UNL1        0.3192
     26 N          64.5392   90.9132   15.2836 N.2     1  UNL1       -0.0585
     27 C          63.3342   90.1974   14.7490 C.3     1  UNL1        0.3085
     28 C          63.0468   90.2090   13.2769 C.2     1  UNL1        0.1121
     29 N          61.9438   89.5976   12.4646 N.2     1  UNL1       -0.2495
     30 N          66.6616   92.3565   14.8807 N.pl3   1  UNL1       -0.1860
     31 C          67.6886   91.6057   15.6754 C.3     1  UNL1        0.2346
     32 C          68.8936   92.3215   16.2100 C.3     1  UNL1        0.1929
     33 O          69.0714   93.7881   15.9499 O.3     1  UNL1       -0.3449
     34 C          68.0443   94.5388   15.1552 C.3     1  UNL1        0.1929
     35 C          66.8394   93.8229   14.6206 C.3     1  UNL1        0.2346
@<TRIPOS>BOND
     1    12    13    1
     2    13    14   ar
     3    14    15   ar
     4    15    16   ar
     5    16    17    1
     6    16    18   ar
     7    18    19   ar
     8    19     9    1
     9     9    10    1
    10     9    11    1
    11     9     8    1
    12     8     1    1
    13     1     2    1
    14     1    20    1
    15    20    21    1
    16    21    22    2
    17    22    23    1
    18    23    24    2
    19    24    25    1
    20    25    30    1
    21    30    31    1
    22    31    32    1
    23    32    33    1
    24    33    34    1
    25    34    35    1
    26    25    26    2
    27    26    27    1
    28    27    28    1
    29    28    29    2
    30     1     4    1
    31     4     5    1
    32     4     6    1
    33     4     7    1
    34    19    13   ar
    35    29    21    1
    36    28    23    1
    37    35    30    1
    38     2     3    1
