@<TRIPOS>MOLECULE
*****
 34 38 0 0 0
SMALL
GASTEIGER

@<TRIPOS>ATOM
      1 C          65.2208   91.6986   12.7167 C.3     1  UNL1        0.1092
      2 C          65.4556   92.5690   11.5179 C.3     1  UNL1        0.1598
      3 O          64.5325   92.4861   10.3385 O.3     1  UNL1       -0.3507
      4 C          63.3746   91.5328   10.3579 C.3     1  UNL1        0.1634
      5 C          63.1398   90.6624   11.5568 C.3     1  UNL1        0.1455
      6 N          64.0629   90.7453   12.7362 N.3     1  UNL1       -0.1499
      7 C          67.6060   91.4927   13.7259 C.3     1  UNL1        0.0015
      8 C          66.1439   91.7815   13.8960 C.3     1  UNL1        0.0189
      9 C          65.6050   92.1533   15.2456 C.3     1  UNL1        0.0015
     10 C          61.9818   89.7091   11.5762 C.3     1  UNL1        0.1550
     11 C          60.8506   90.6688   11.3542 C.3     1  UNL1        0.0453
     12 C          60.5707   89.2041   11.5162 C.3     1  UNL1        0.0453
     13 O          62.7109   88.4183   11.8051 O.3     1  UNL1       -0.4403
     14 C          62.5603   87.2888   10.8296 C.2     1  UNL1        0.4048
     15 O          62.2688   87.5776    9.3869 O.2     1  UNL1       -0.2262
     16 N          62.7012   85.8705   11.2970 N.am    1  UNL1       -0.2433
     17 C          62.9927   85.5816   12.7398 C.3     1  UNL1        0.1124
     18 C          63.1335   84.1632   13.2071 C.3     1  UNL1        0.0743
     19 C          63.1886   82.6643   13.2201 C.3     1  UNL1        0.0189
     20 C          62.9334   82.1790   11.8240 C.3     1  UNL1        0.0189
     21 C          62.7205   83.3778   10.9480 C.3     1  UNL1        0.0743
     22 C          62.5506   84.7409   10.3216 C.3     1  UNL1        0.1124
     23 N          62.8442   84.6042   11.8029 N.3     1  UNL1       -0.2969
     24 H          61.9720   85.1324   11.7788 H       1  UNL1        0.1233
     25 S          63.8281   89.8749   13.9350 S.O2    1  UNL1        0.0635
     26 O          62.8718   90.8910   14.4854 O.2     1  UNL1       -0.1528
     27 O          64.6120   88.7980   13.7154 O.2     1  UNL1       -0.1528
     28 C          63.5933   89.0044   15.1339 C.ar    1  UNL1        0.1223
     29 C          63.8700   87.5321   15.0575 C.ar    1  UNL1        0.0208
     30 C          63.6352   86.6617   16.2564 C.ar    1  UNL1        0.0128
     31 C          63.1239   87.2636   17.5315 C.ar    1  UNL1        0.0578
     32 CL         62.8891   86.3932   18.7304 Cl      1  UNL1       -0.0822
     33 C          62.8472   88.7359   17.6079 C.ar    1  UNL1        0.0128
     34 C          63.0820   89.6063   16.4090 C.ar    1  UNL1        0.0208
@<TRIPOS>BOND
     1     7     8    1
     2     8     9    1
     3     1     8    1
     4     1     2    1
     5     2     3    1
     6     3     4    1
     7     4     5    1
     8     5    10    1
     9    10    13    1
    10    13    14    1
    11    14    15    2
    12    14    16   am
    13    16    17    1
    14    17    18    1
    15    18    19    1
    16    19    20    1
    17    20    21    1
    18    21    22    1
    19    21    23    1
    20    10    11    1
    21    11    12    1
    22     5     6    1
    23     6    25    1
    24    25    26    2
    25    25    27    2
    26    25    28    1
    27    28    29   ar
    28    29    30   ar
    29    30    31   ar
    30    31    32    1
    31    31    33   ar
    32    33    34   ar
    33     6     1    1
    34    34    28   ar
    35    12    10    1
    36    22    16    1
    37    23    18    1
    38    23    24    1
@<TRIPOS>MOLECULE
*****
 34 38 0 0 0
SMALL
GASTEIGER

@<TRIPOS>ATOM
      1 C          60.8711   87.1951    8.2497 C.3     1  UNL1        0.1092
      2 C          60.1849   88.1064    7.2757 C.3     1  UNL1        0.1598
      3 O          59.7385   89.4704    7.7114 O.3     1  UNL1       -0.3507
      4 C          59.9782   89.9233    9.1212 C.3     1  UNL1        0.1634
      5 C          60.6644   89.0119   10.0952 C.3     1  UNL1        0.1455
      6 N          61.1108   87.6479    9.6595 N.3     1  UNL1       -0.1499
      7 C          60.3529   84.9097    7.1279 C.3     1  UNL1        0.0015
      8 C          61.3176   85.8310    7.8138 C.3     1  UNL1        0.0189
      9 C          62.7287   85.3883    8.0640 C.3     1  UNL1        0.0015
     10 C          60.9041   89.4648   11.5050 C.3     1  UNL1        0.1550
     11 C          59.4877   89.6341   11.9686 C.3     1  UNL1        0.0453
     12 C          60.6229   89.9218   12.9057 C.3     1  UNL1        0.0453
     13 O          62.4038   89.4527   11.5310 O.3     1  UNL1       -0.4403
     14 C          63.1696   90.7014   11.2080 C.2     1  UNL1        0.4048
     15 O          62.9466   91.4007    9.8998 O.2     1  UNL1       -0.2262
     16 N          64.1584   91.2507   12.1931 N.am    1  UNL1       -0.2433
     17 C          64.3815   90.5515   13.5012 C.3     1  UNL1        0.1124
     18 C          65.3703   91.1009   14.4864 C.3     1  UNL1        0.0743
     19 C          66.4076   91.9709   15.1322 C.3     1  UNL1        0.0189
     20 C          66.7209   93.0955   14.1905 C.3     1  UNL1        0.0189
     21 C          65.8773   92.9207   12.9625 C.3     1  UNL1        0.0743
     22 C          64.9242   92.4994   11.8701 C.3     1  UNL1        0.1124
     23 N          65.0426   91.6878   13.1454 N.3     1  UNL1       -0.2969
     24 H          65.2560   91.0131   12.4108 H       1  UNL1        0.1233
     25 S          61.7970   86.7365   10.6334 S.O2    1  UNL1        0.0635
     26 O          63.1305   87.1806   10.1095 O.2     1  UNL1       -0.1528
     27 O          60.7820   86.1503   11.3030 O.2     1  UNL1       -0.1528
     28 C          62.4832   85.8252   11.6075 C.ar    1  UNL1        0.1223
     29 C          62.4443   84.3401   11.4003 C.ar    1  UNL1        0.0208
     30 C          63.1304   83.4288   12.3744 C.ar    1  UNL1        0.0128
     31 C          63.8554   84.0027   13.5555 C.ar    1  UNL1        0.0578
     32 CL         64.5415   83.0914   14.5296 Cl      1  UNL1       -0.0822
     33 C          63.8943   85.4878   13.7626 C.ar    1  UNL1        0.0128
     34 C          63.2081   86.3991   12.7885 C.ar    1  UNL1        0.0208
@<TRIPOS>BOND
     1     7     8    1
     2     8     9    1
     3     1     8    1
     4     1     2    1
     5     2     3    1
     6     3     4    1
     7     4     5    1
     8     5    10    1
     9    10    13    1
    10    13    14    1
    11    14    15    2
    12    14    16   am
    13    16    17    1
    14    17    18    1
    15    18    19    1
    16    19    20    1
    17    20    21    1
    18    21    22    1
    19    21    23    1
    20    10    11    1
    21    11    12    1
    22     5     6    1
    23     6    25    1
    24    25    26    2
    25    25    27    2
    26    25    28    1
    27    28    29   ar
    28    29    30   ar
    29    30    31   ar
    30    31    32    1
    31    31    33   ar
    32    33    34   ar
    33     6     1    1
    34    34    28   ar
    35    12    10    1
    36    22    16    1
    37    23    18    1
    38    23    24    1
@<TRIPOS>MOLECULE
*****
 34 38 0 0 0
SMALL
GASTEIGER

@<TRIPOS>ATOM
      1 C          63.4588   85.5171   12.7445 C.3     1  UNL1        0.1092
      2 C          64.3288   85.1821   13.9196 C.3     1  UNL1        0.1598
      3 O          64.8158   86.2725   14.8273 O.3     1  UNL1       -0.3507
      4 C          64.4328   87.6979   14.5599 C.3     1  UNL1        0.1634
      5 C          63.5627   88.0329   13.3848 C.3     1  UNL1        0.1455
      6 N          63.0757   86.9425   12.4771 N.3     1  UNL1       -0.1499
      7 C          63.3093   84.4604   10.3757 C.3     1  UNL1        0.0015
      8 C          62.9718   84.4267   11.8369 C.3     1  UNL1        0.0189
      9 C          62.1473   83.3025   12.3904 C.3     1  UNL1        0.0015
     10 C          63.1797   89.4583   13.1174 C.3     1  UNL1        0.1550
     11 C          61.7332   89.4178   13.5122 C.3     1  UNL1        0.0453
     12 C          62.3405   90.6977   13.0194 C.3     1  UNL1        0.0453
     13 O          64.4932   89.9939   12.6297 O.3     1  UNL1       -0.4403
     14 C          65.1518   91.1338   13.3488 C.2     1  UNL1        0.4048
     15 O          65.4924   91.0061   14.8039 O.2     1  UNL1       -0.2262
     16 N          65.4698   92.4014   12.6125 N.am    1  UNL1       -0.2433
     17 C          65.1292   92.5291   11.1572 C.3     1  UNL1        0.1124
     18 C          65.4473   93.7968   10.4210 C.3     1  UNL1        0.0743
     19 C          65.9280   95.1829   10.1087 C.3     1  UNL1        0.0189
     20 C          66.5048   95.7672   11.3639 C.3     1  UNL1        0.0189
     21 C          66.3807   94.7423   12.4521 C.3     1  UNL1        0.0743
     22 C          66.1284   93.5412   13.3314 C.3     1  UNL1        0.1124
     23 N          65.7270   93.5244   11.8693 N.3     1  UNL1       -0.2969
     24 H          64.8539   93.3317   12.3602 H       1  UNL1        0.1233
     25 S          62.2057   87.2775   11.3020 S.O2    1  UNL1        0.0635
     26 O          61.0534   86.5729   11.9544 O.2     1  UNL1       -0.1528
     27 O          63.0225   87.9658   10.4765 O.2     1  UNL1       -0.1528
     28 C          61.3357   87.6125   10.1269 C.ar    1  UNL1        0.1223
     29 C          61.0919   89.0461    9.7587 C.ar    1  UNL1        0.0208
     30 C          60.2219   89.3810    8.5836 C.ar    1  UNL1        0.0128
     31 C          59.5958   88.2824    7.7767 C.ar    1  UNL1        0.0578
     32 CL         58.7258   88.6174    6.6016 Cl      1  UNL1       -0.0822
     33 C          59.8396   86.8489    8.1449 C.ar    1  UNL1        0.0128
     34 C          60.7096   86.5140    9.3201 C.ar    1  UNL1        0.0208
@<TRIPOS>BOND
     1     7     8    1
     2     8     9    1
     3     1     8    1
     4     1     2    1
     5     2     3    1
     6     3     4    1
     7     4     5    1
     8     5    10    1
     9    10    13    1
    10    13    14    1
    11    14    15    2
    12    14    16   am
    13    16    17    1
    14    17    18    1
    15    18    19    1
    16    19    20    1
    17    20    21    1
    18    21    22    1
    19    21    23    1
    20    10    11    1
    21    11    12    1
    22     5     6    1
    23     6    25    1
    24    25    26    2
    25    25    27    2
    26    25    28    1
    27    28    29   ar
    28    29    30   ar
    29    30    31   ar
    30    31    32    1
    31    31    33   ar
    32    33    34   ar
    33     6     1    1
    34    34    28   ar
    35    12    10    1
    36    22    16    1
    37    23    18    1
    38    23    24    1
@<TRIPOS>MOLECULE
*****
 34 38 0 0 0
SMALL
GASTEIGER

@<TRIPOS>ATOM
      1 C          63.4078   85.6148   12.6187 C.3     1  UNL1        0.1092
      2 C          64.2898   85.3081   13.7926 C.3     1  UNL1        0.1598
      3 O          64.7812   86.4193   14.6722 O.3     1  UNL1       -0.3507
      4 C          64.3907   87.8374   14.3778 C.3     1  UNL1        0.1634
      5 C          63.5087   88.1441   13.2039 C.3     1  UNL1        0.1455
      6 N          63.0172   87.0329   12.3244 N.3     1  UNL1       -0.1499
      7 C          62.0418   83.4266   12.3095 C.3     1  UNL1        0.0015
      8 C          62.9164   84.5036   11.7393 C.3     1  UNL1        0.0189
      9 C          63.2996   84.4692   10.2894 C.3     1  UNL1        0.0015
     10 C          63.1181   89.5621   12.9096 C.3     1  UNL1        0.1550
     11 C          61.8424   89.6491   13.6937 C.3     1  UNL1        0.0453
     12 C          62.3316   90.8393   12.9231 C.3     1  UNL1        0.0453
     13 O          64.2582   89.9677   12.0232 O.3     1  UNL1       -0.4403
     14 C          64.7148   91.3963   11.9949 C.2     1  UNL1        0.4048
     15 O          64.2874   92.2982   10.8752 O.2     1  UNL1       -0.2262
     16 N          65.5986   91.9229   13.0864 N.am    1  UNL1       -0.2433
     17 C          66.0260   91.0210   14.2063 C.3     1  UNL1        0.1124
     18 C          66.9099   91.5476   15.2978 C.3     1  UNL1        0.0743
     19 C          67.7557   92.4643   16.1311 C.3     1  UNL1        0.0189
     20 C          67.7726   93.8097   15.4683 C.3     1  UNL1        0.0189
     21 C          66.9372   93.7247   14.2253 C.3     1  UNL1        0.0743
     22 C          66.0552   93.3514   13.0582 C.3     1  UNL1        0.1124
     23 N          66.4040   92.3266   14.1200 N.3     1  UNL1       -0.2969
     24 H          66.7298   91.8961   13.2545 H       1  UNL1        0.1233
     25 S          62.1352   87.3396   11.1505 S.O2    1  UNL1        0.0635
     26 O          60.9429   86.8525   11.9192 O.2     1  UNL1       -0.1528
     27 O          62.9845   87.8317   10.2237 O.2     1  UNL1       -0.1528
     28 C          61.2533   87.6464    9.9766 C.ar    1  UNL1        0.1223
     29 C          60.6423   86.5282    9.1850 C.ar    1  UNL1        0.0208
     30 C          59.7604   86.8351    8.0111 C.ar    1  UNL1        0.0128
     31 C          59.4895   88.2600    7.6288 C.ar    1  UNL1        0.0578
     32 CL         58.6076   88.5668    6.4549 Cl      1  UNL1       -0.0822
     33 C          60.1005   89.3781    8.4203 C.ar    1  UNL1        0.0128
     34 C          60.9824   89.0712    9.5943 C.ar    1  UNL1        0.0208
@<TRIPOS>BOND
     1     7     8    1
     2     8     9    1
     3     1     8    1
     4     1     2    1
     5     2     3    1
     6     3     4    1
     7     4     5    1
     8     5    10    1
     9    10    13    1
    10    13    14    1
    11    14    15    2
    12    14    16   am
    13    16    17    1
    14    17    18    1
    15    18    19    1
    16    19    20    1
    17    20    21    1
    18    21    22    1
    19    21    23    1
    20    10    11    1
    21    11    12    1
    22     5     6    1
    23     6    25    1
    24    25    26    2
    25    25    27    2
    26    25    28    1
    27    28    29   ar
    28    29    30   ar
    29    30    31   ar
    30    31    32    1
    31    31    33   ar
    32    33    34   ar
    33     6     1    1
    34    34    28   ar
    35    12    10    1
    36    22    16    1
    37    23    18    1
    38    23    24    1
@<TRIPOS>MOLECULE
*****
 34 38 0 0 0
SMALL
GASTEIGER

@<TRIPOS>ATOM
      1 C          60.6697   87.8064    8.9211 C.3     1  UNL1        0.1092
      2 C          60.0862   88.9602    8.1607 C.3     1  UNL1        0.1598
      3 O          60.1635   90.3472    8.7265 O.3     1  UNL1       -0.3507
      4 C          60.8244   90.5805   10.0528 C.3     1  UNL1        0.1634
      5 C          61.4079   89.4266   10.8131 C.3     1  UNL1        0.1455
      6 N          61.3306   88.0396   10.2473 N.3     1  UNL1       -0.1499
      7 C          61.8386   85.5968    8.2129 C.3     1  UNL1        0.0015
      8 C          60.5924   86.4194    8.3552 C.3     1  UNL1        0.0189
      9 C          59.2687   85.8550    7.9317 C.3     1  UNL1        0.0015
     10 C          62.0687   89.6598   12.1394 C.3     1  UNL1        0.1550
     11 C          60.8813   89.5361   13.0474 C.3     1  UNL1        0.0453
     12 C          62.2374   89.8220   13.6210 C.3     1  UNL1        0.0453
     13 O          63.4858   89.8645   11.6919 O.3     1  UNL1       -0.4403
     14 C          64.0555   91.2501   11.6158 C.2     1  UNL1        0.4048
     15 O          63.6718   92.1577   10.4849 O.2     1  UNL1       -0.2262
     16 N          65.0089   91.7278   12.6706 N.am    1  UNL1       -0.2433
     17 C          65.3927   90.8202   13.8015 C.3     1  UNL1        0.1124
     18 C          66.3462   91.2980   14.8564 C.3     1  UNL1        0.0743
     19 C          67.2861   92.1616   15.6442 C.3     1  UNL1        0.0189
     20 C          67.3935   93.4855   14.9473 C.3     1  UNL1        0.0189
     21 C          66.5199   93.4403   13.7288 C.3     1  UNL1        0.0743
     22 C          65.5787   93.1133   12.5945 C.3     1  UNL1        0.1124
     23 N          65.8726   92.0882   13.6726 N.3     1  UNL1       -0.2969
     24 H          66.1384   91.6128   12.8102 H       1  UNL1        0.1233
     25 S          61.9141   86.8857   11.0077 S.O2    1  UNL1        0.0635
     26 O          60.5477   86.5268   11.5115 O.2     1  UNL1       -0.1528
     27 O          63.2344   86.9480   10.7332 O.2     1  UNL1       -0.1528
     28 C          62.4977   85.7319   11.7680 C.ar    1  UNL1        0.1223
     29 C          62.1961   84.3250   11.3442 C.ar    1  UNL1        0.0208
     30 C          62.7797   83.1712   12.1046 C.ar    1  UNL1        0.0128
     31 C          63.6649   83.4244   13.2887 C.ar    1  UNL1        0.0578
     32 CL         64.2486   82.2707   14.0491 Cl      1  UNL1       -0.0822
     33 C          63.9665   84.8313   13.7126 C.ar    1  UNL1        0.0128
     34 C          63.3829   85.9851   12.9522 C.ar    1  UNL1        0.0208
@<TRIPOS>BOND
     1     7     8    1
     2     8     9    1
     3     1     8    1
     4     1     2    1
     5     2     3    1
     6     3     4    1
     7     4     5    1
     8     5    10    1
     9    10    13    1
    10    13    14    1
    11    14    15    2
    12    14    16   am
    13    16    17    1
    14    17    18    1
    15    18    19    1
    16    19    20    1
    17    20    21    1
    18    21    22    1
    19    21    23    1
    20    10    11    1
    21    11    12    1
    22     5     6    1
    23     6    25    1
    24    25    26    2
    25    25    27    2
    26    25    28    1
    27    28    29   ar
    28    29    30   ar
    29    30    31   ar
    30    31    32    1
    31    31    33   ar
    32    33    34   ar
    33     6     1    1
    34    34    28   ar
    35    12    10    1
    36    22    16    1
    37    23    18    1
    38    23    24    1
@<TRIPOS>MOLECULE
*****
 34 38 0 0 0
SMALL
GASTEIGER

@<TRIPOS>ATOM
      1 C          59.3874   95.4489   -2.0623 C.3     1  UNL1        0.1092
      2 C          58.5166   96.0836   -1.0188 C.3     1  UNL1        0.1598
      3 O          59.1049   96.5016    0.2961 O.3     1  UNL1       -0.3507
      4 C          60.5641   96.2849    0.5677 C.3     1  UNL1        0.1634
      5 C          61.4349   95.6502   -0.4758 C.3     1  UNL1        0.1455
      6 N          60.8466   95.2322   -1.7907 N.3     1  UNL1       -0.1499
      7 C          58.2565   93.6430   -3.5488 C.3     1  UNL1        0.0015
      8 C          58.7990   95.0309   -3.3771 C.3     1  UNL1        0.0189
      9 C          58.7532   96.0008   -4.5205 C.3     1  UNL1        0.0015
     10 C          62.8942   95.4335   -0.2042 C.3     1  UNL1        0.1550
     11 C          63.3447   96.8560   -0.0513 C.3     1  UNL1        0.0453
     12 C          64.3338   95.7370    0.0876 C.3     1  UNL1        0.0453
     13 O          62.9504   93.9357   -0.2628 O.3     1  UNL1       -0.4403
     14 C          63.3377   93.1515    0.9558 C.2     1  UNL1        0.4048
     15 O          64.7707   92.7667    1.1760 O.2     1  UNL1       -0.2262
     16 N          62.2920   92.7521    1.9542 N.am    1  UNL1       -0.2433
     17 C          60.8589   93.1369    1.7340 C.3     1  UNL1        0.1124
     18 C          59.8131   92.7375    2.7325 C.3     1  UNL1        0.0743
     19 C          59.1434   92.1491    3.9388 C.3     1  UNL1        0.0189
     20 C          60.1942   91.4742    4.7694 C.3     1  UNL1        0.0189
     21 C          61.5136   91.6454    4.0767 C.3     1  UNL1        0.0743
     22 C          62.6791   91.9679    3.1729 C.3     1  UNL1        0.1124
     23 N          61.2780   92.4262    2.8177 N.3     1  UNL1       -0.2969
     24 H          61.5620   91.8731    2.0091 H       1  UNL1        0.1233
     25 S          61.7175   94.5975   -2.8342 S.O2    1  UNL1        0.0635
     26 O          62.1005   95.9563   -3.3410 O.2     1  UNL1       -0.1528
     27 O          61.5726   93.2727   -2.6188 O.2     1  UNL1       -0.1528
     28 C          62.5883   93.9627   -3.8776 C.ar    1  UNL1        0.1223
     29 C          63.6741   93.0111   -3.4707 C.ar    1  UNL1        0.0208
     30 C          64.5449   92.3764   -4.5143 C.ar    1  UNL1        0.0128
     31 C          64.3298   92.6933   -5.9645 C.ar    1  UNL1        0.0578
     32 CL         65.2006   92.0585   -7.0080 Cl      1  UNL1       -0.0822
     33 C          63.2440   93.6448   -6.3713 C.ar    1  UNL1        0.0128
     34 C          62.3732   94.2796   -5.3278 C.ar    1  UNL1        0.0208
@<TRIPOS>BOND
     1     7     8    1
     2     8     9    1
     3     1     8    1
     4     1     2    1
     5     2     3    1
     6     3     4    1
     7     4     5    1
     8     5    10    1
     9    10    13    1
    10    13    14    1
    11    14    15    2
    12    14    16   am
    13    16    17    1
    14    17    18    1
    15    18    19    1
    16    19    20    1
    17    20    21    1
    18    21    22    1
    19    21    23    1
    20    10    11    1
    21    11    12    1
    22     5     6    1
    23     6    25    1
    24    25    26    2
    25    25    27    2
    26    25    28    1
    27    28    29   ar
    28    29    30   ar
    29    30    31   ar
    30    31    32    1
    31    31    33   ar
    32    33    34   ar
    33     6     1    1
    34    34    28   ar
    35    12    10    1
    36    22    16    1
    37    23    18    1
    38    23    24    1
@<TRIPOS>MOLECULE
*****
 34 38 0 0 0
SMALL
GASTEIGER

@<TRIPOS>ATOM
      1 C          64.9578   91.6714   12.4564 C.3     1  UNL1        0.1092
      2 C          65.9892   92.3902   13.2746 C.3     1  UNL1        0.1598
      3 O          66.2139   92.0033   14.7063 O.3     1  UNL1       -0.3507
      4 C          65.4073   90.8975   15.3198 C.3     1  UNL1        0.1634
      5 C          64.3758   90.1786   14.5016 C.3     1  UNL1        0.1455
      6 N          64.1511   90.5656   13.0699 N.3     1  UNL1       -0.1499
      7 C          63.4140   91.7751   10.3693 C.3     1  UNL1        0.0015
      8 C          64.7332   92.0584   11.0248 C.3     1  UNL1        0.0189
      9 C          65.8277   92.7288   10.2485 C.3     1  UNL1        0.0015
     10 C          63.5692   89.0728   15.1151 C.3     1  UNL1        0.1550
     11 C          63.1112   89.7509   16.3722 C.3     1  UNL1        0.0453
     12 C          62.7007   88.3359   16.0912 C.3     1  UNL1        0.0453
     13 O          63.7469   88.0105   14.0710 O.3     1  UNL1       -0.4403
     14 C          64.4505   86.7312   14.4150 C.2     1  UNL1        0.4048
     15 O          65.5276   86.7248   15.4588 O.2     1  UNL1       -0.2262
     16 N          64.0769   85.4582   13.7150 N.am    1  UNL1       -0.2433
     17 C          62.9998   85.4646   12.6710 C.3     1  UNL1        0.1124
     18 C          62.6262   84.1916   11.9710 C.3     1  UNL1        0.0743
     19 C          62.5887   82.7515   11.5529 C.3     1  UNL1        0.0189
     20 C          63.6167   82.0093   12.3541 C.3     1  UNL1        0.0189
     21 C          64.2898   82.9905   13.2675 C.3     1  UNL1        0.0743
     22 C          64.7805   84.1789   14.0588 C.3     1  UNL1        0.1124
     23 N          63.6775   84.3393   13.0307 N.3     1  UNL1       -0.2969
     24 H          64.3941   84.9947   12.7184 H       1  UNL1        0.1233
     25 S          63.1197   89.8467   12.2517 S.O2    1  UNL1        0.0635
     26 O          62.0587   90.7640   12.7833 O.2     1  UNL1       -0.1528
     27 O          63.8218   88.8892   11.6092 O.2     1  UNL1       -0.1528
     28 C          62.0884   89.1278   11.4334 C.ar    1  UNL1        0.1223
     29 C          60.6309   89.3029   11.7417 C.ar    1  UNL1        0.0208
     30 C          59.5996   88.5840   10.9233 C.ar    1  UNL1        0.0128
     31 C          60.0259   87.6900    9.7969 C.ar    1  UNL1        0.0578
     32 CL         58.9946   86.9711    8.9785 Cl      1  UNL1       -0.0822
     33 C          61.4834   87.5149    9.4886 C.ar    1  UNL1        0.0128
     34 C          62.5147   88.2339   10.3069 C.ar    1  UNL1        0.0208
@<TRIPOS>BOND
     1     7     8    1
     2     8     9    1
     3     1     8    1
     4     1     2    1
     5     2     3    1
     6     3     4    1
     7     4     5    1
     8     5    10    1
     9    10    13    1
    10    13    14    1
    11    14    15    2
    12    14    16   am
    13    16    17    1
    14    17    18    1
    15    18    19    1
    16    19    20    1
    17    20    21    1
    18    21    22    1
    19    21    23    1
    20    10    11    1
    21    11    12    1
    22     5     6    1
    23     6    25    1
    24    25    26    2
    25    25    27    2
    26    25    28    1
    27    28    29   ar
    28    29    30   ar
    29    30    31   ar
    30    31    32    1
    31    31    33   ar
    32    33    34   ar
    33     6     1    1
    34    34    28   ar
    35    12    10    1
    36    22    16    1
    37    23    18    1
    38    23    24    1
@<TRIPOS>MOLECULE
*****
 34 38 0 0 0
SMALL
GASTEIGER

@<TRIPOS>ATOM
      1 C          65.2974   91.7760   12.6884 C.3     1  UNL1        0.1092
      2 C          65.5240   92.6947   11.5245 C.3     1  UNL1        0.1598
      3 O          64.5686   92.6901   10.3682 O.3     1  UNL1       -0.3507
      4 C          63.3865   91.7667   10.3757 C.3     1  UNL1        0.1634
      5 C          63.1599   90.8480   11.5396 C.3     1  UNL1        0.1455
      6 N          64.1153   90.8526   12.6959 N.3     1  UNL1       -0.1499
      7 C          67.6944   91.4270   13.6279 C.3     1  UNL1        0.0015
      8 C          66.2529   91.7806   13.8446 C.3     1  UNL1        0.0189
      9 C          65.7669   92.1390   15.2177 C.3     1  UNL1        0.0015
     10 C          61.9778   89.9246   11.5472 C.3     1  UNL1        0.1550
     11 C          61.2239   90.4762   12.7207 C.3     1  UNL1        0.0453
     12 C          60.6765   89.3042   11.9614 C.3     1  UNL1        0.0453
     13 O          62.3212   89.0522   10.3762 O.3     1  UNL1       -0.4403
     14 C          61.2407   88.5850    9.4466 C.2     1  UNL1        0.4048
     15 O          59.9818   89.3867    9.2969 O.2     1  UNL1       -0.2262
     16 N          61.4191   87.3162    8.6667 N.am    1  UNL1       -0.2433
     17 C          62.6781   86.5146    8.8164 C.3     1  UNL1        0.1124
     18 C          62.8565   85.2457    8.0365 C.3     1  UNL1        0.0743
     19 C          62.6087   84.0987    7.1022 C.3     1  UNL1        0.0189
     20 C          61.2581   84.2918    6.4791 C.3     1  UNL1        0.0189
     21 C          60.6709   85.5582    7.0282 C.3     1  UNL1        0.0743
     22 C          60.3386   86.8490    7.7371 C.3     1  UNL1        0.1124
     23 N          61.6589   86.1477    7.9908 N.3     1  UNL1       -0.2969
     24 H          61.2405   86.2148    8.9186 H       1  UNL1        0.1233
     25 S          63.8888   89.9339   13.8598 S.O2    1  UNL1        0.0635
     26 O          63.3265   91.0765   14.6523 O.2     1  UNL1       -0.1528
     27 O          64.3304   88.7360   13.4211 O.2     1  UNL1       -0.1528
     28 C          63.6622   89.0151   15.0236 C.ar    1  UNL1        0.1223
     29 C          63.9555   87.5500   14.8908 C.ar    1  UNL1        0.0208
     30 C          63.7289   86.6313   16.0547 C.ar    1  UNL1        0.0128
     31 C          63.2091   87.1776   17.3513 C.ar    1  UNL1        0.0578
     32 CL         62.9825   86.2589   18.5152 Cl      1  UNL1       -0.0822
     33 C          62.9158   88.6427   17.4841 C.ar    1  UNL1        0.0128
     34 C          63.1423   89.5614   16.3202 C.ar    1  UNL1        0.0208
@<TRIPOS>BOND
     1     7     8    1
     2     8     9    1
     3     1     8    1
     4     1     2    1
     5     2     3    1
     6     3     4    1
     7     4     5    1
     8     5    10    1
     9    10    13    1
    10    13    14    1
    11    14    15    2
    12    14    16   am
    13    16    17    1
    14    17    18    1
    15    18    19    1
    16    19    20    1
    17    20    21    1
    18    21    22    1
    19    21    23    1
    20    10    11    1
    21    11    12    1
    22     5     6    1
    23     6    25    1
    24    25    26    2
    25    25    27    2
    26    25    28    1
    27    28    29   ar
    28    29    30   ar
    29    30    31   ar
    30    31    32    1
    31    31    33   ar
    32    33    34   ar
    33     6     1    1
    34    34    28   ar
    35    12    10    1
    36    22    16    1
    37    23    18    1
    38    23    24    1
@<TRIPOS>MOLECULE
*****
 34 38 0 0 0
SMALL
GASTEIGER

@<TRIPOS>ATOM
      1 C          57.0726   93.7462   -3.2656 C.3     1  UNL1        0.1092
      2 C          55.6804   93.9977   -2.7670 C.3     1  UNL1        0.1598
      3 O          55.4563   94.9060   -1.5945 O.3     1  UNL1       -0.3507
      4 C          56.6244   95.5629   -0.9207 C.3     1  UNL1        0.1634
      5 C          58.0166   95.3114   -1.4193 C.3     1  UNL1        0.1455
      6 N          58.2407   94.4030   -2.5918 N.3     1  UNL1       -0.1499
      7 C          57.3629   93.4057   -5.8249 C.3     1  UNL1        0.0015
      8 C          57.2966   92.8379   -4.4381 C.3     1  UNL1        0.0189
      9 C          57.4542   91.3616   -4.2238 C.3     1  UNL1        0.0015
     10 C          59.1847   95.9682   -0.7455 C.3     1  UNL1        0.1550
     11 C          59.6613   96.8557   -1.8568 C.3     1  UNL1        0.0453
     12 C          60.3774   96.8541   -0.5389 C.3     1  UNL1        0.0453
     13 O          59.1138   95.3089    0.6000 O.3     1  UNL1       -0.4403
     14 C          59.7947   93.9916    0.8265 C.2     1  UNL1        0.4048
     15 O          58.9782   92.7451    0.9986 O.2     1  UNL1       -0.2262
     16 N          61.2920   93.9209    0.8808 N.am    1  UNL1       -0.2433
     17 C          62.1085   95.1674    0.7087 C.3     1  UNL1        0.1124
     18 C          63.6059   95.0966    0.7631 C.3     1  UNL1        0.0743
     19 C          65.0057   94.5719    0.8859 C.3     1  UNL1        0.0189
     20 C          64.9274   93.0918    1.1160 C.3     1  UNL1        0.0189
     21 C          63.4792   92.7016    1.1354 C.3     1  UNL1        0.0743
     22 C          61.9729   92.6037    1.1073 C.3     1  UNL1        0.1124
     23 N          62.6624   93.9407    0.9173 N.3     1  UNL1       -0.2969
     24 H          62.0508   94.0976    1.7184 H       1  UNL1        0.1233
     25 S          59.6328   94.1515   -3.0904 S.O2    1  UNL1        0.0635
     26 O          59.8120   93.0843   -2.0518 O.2     1  UNL1       -0.1528
     27 O          59.7794   95.0287   -4.1060 O.2     1  UNL1       -0.1528
     28 C          61.0250   93.9001   -3.5892 C.ar    1  UNL1        0.1223
     29 C          61.4062   94.3017   -4.9832 C.ar    1  UNL1        0.0208
     30 C          62.7984   94.0502   -5.4819 C.ar    1  UNL1        0.0128
     31 C          63.8092   93.3972   -4.5865 C.ar    1  UNL1        0.0578
     32 CL         65.2014   93.1457   -5.0851 Cl      1  UNL1       -0.0822
     33 C          63.4279   92.9956   -3.1924 C.ar    1  UNL1        0.0128
     34 C          62.0358   93.2471   -2.6938 C.ar    1  UNL1        0.0208
@<TRIPOS>BOND
     1     7     8    1
     2     8     9    1
     3     1     8    1
     4     1     2    1
     5     2     3    1
     6     3     4    1
     7     4     5    1
     8     5    10    1
     9    10    13    1
    10    13    14    1
    11    14    15    2
    12    14    16   am
    13    16    17    1
    14    17    18    1
    15    18    19    1
    16    19    20    1
    17    20    21    1
    18    21    22    1
    19    21    23    1
    20    10    11    1
    21    11    12    1
    22     5     6    1
    23     6    25    1
    24    25    26    2
    25    25    27    2
    26    25    28    1
    27    28    29   ar
    28    29    30   ar
    29    30    31   ar
    30    31    32    1
    31    31    33   ar
    32    33    34   ar
    33     6     1    1
    34    34    28   ar
    35    12    10    1
    36    22    16    1
    37    23    18    1
    38    23    24    1
