@<TRIPOS>MOLECULE
*****
 28 31 0 0 0
SMALL
GASTEIGER

@<TRIPOS>ATOM
      1 C          62.5528   88.8850   12.2898 C.3     1  UNL1        0.0230
      2 C          63.6240   89.7483   12.8876 C.3     1  UNL1        0.0915
      3 C          64.0101   91.0347   12.2198 C.3     1  UNL1        0.0924
      4 N          65.0813   91.8980   12.8175 N.3     1  UNL1       -0.2660
      5 C          65.7664   91.4749   14.0831 C.3     1  UNL1        0.0942
      6 C          65.3803   90.1884   14.7508 C.3     1  UNL1        0.1108
      7 N          64.3091   89.3252   14.1531 N.pl3   1  UNL1       -0.2783
      8 C          63.9230   88.0387   14.8209 C.ar    1  UNL1        0.2035
      9 N          64.0577   86.7402   14.0821 N.ar    1  UNL1       -0.2133
     10 C          63.6716   85.4538   14.7498 C.ar    1  UNL1        0.1065
     11 C          63.1508   85.4657   16.1565 C.ar    1  UNL1        0.0815
     12 C          63.0161   86.7642   16.8954 C.ar    1  UNL1        0.2646
     13 O          62.4953   86.7762   18.3020 O.2     1  UNL1       -0.2668
     14 N          63.4022   88.0507   16.2275 N.ar    1  UNL1       -0.2667
     15 C          63.2675   89.3491   16.9664 C.3     1  UNL1        0.1363
     16 C          63.8063   84.1553   14.0110 C.ar    1  UNL1        0.1024
     17 C          64.1567   84.1552   12.5525 C.ar    1  UNL1        0.0414
     18 C          64.2914   82.8567   11.8137 C.ar    1  UNL1        0.1023
     19 N          64.0757   81.5584   12.5333 N.ar    1  UNL1       -0.2224
     20 C          63.7253   81.5586   13.9918 C.ar    1  UNL1        0.1989
     21 N          63.5906   82.8570   14.7307 N.ar    1  UNL1       -0.2224
     22 C          65.4674   93.1845   12.1497 C.3     1  UNL1        0.0992
     23 C          66.4655   93.1782   11.0300 C.ar    1  UNL1       -0.0061
     24 C          67.4541   92.0560   10.9128 C.ar    1  UNL1       -0.0029
     25 C          68.4521   92.0497    9.7931 C.ar    1  UNL1       -0.0003
     26 C          68.4617   93.1655    8.7905 C.ar    1  UNL1       -0.0000
     27 C          67.4731   94.2875    8.9077 C.ar    1  UNL1       -0.0003
     28 C          66.4751   94.2939   10.0275 C.ar    1  UNL1       -0.0029
@<TRIPOS>BOND
     1     2     1    1
     2     2     3    1
     3     3     4    1
     4     4    22    1
     5    22    23    1
     6    23    24   ar
     7    24    25   ar
     8    25    26   ar
     9    26    27   ar
    10    27    28   ar
    11     4     5    1
    12     5     6    1
    13     6     7    1
    14     7     8    1
    15     8     9   ar
    16     9    10   ar
    17    10    16    1
    18    16    17   ar
    19    17    18   ar
    20    18    19   ar
    21    19    20   ar
    22    20    21   ar
    23    10    11   ar
    24    11    12   ar
    25    12    13    2
    26    12    14   ar
    27    14    15    1
    28     7     2    1
    29    14     8   ar
    30    28    23   ar
    31    21    16   ar
@<TRIPOS>MOLECULE
*****
 28 31 0 0 0
SMALL
GASTEIGER

@<TRIPOS>ATOM
      1 C          63.0847   91.4122   10.2831 C.3     1  UNL1        0.0230
      2 C          63.0811   90.1606   11.1098 C.3     1  UNL1        0.0915
      3 C          62.2611   88.9803   10.6802 C.3     1  UNL1        0.0924
      4 N          62.2574   87.7287   11.5069 N.3     1  UNL1       -0.2660
      5 C          63.0738   87.6573   12.7632 C.3     1  UNL1        0.0942
      6 C          63.8938   88.8376   13.1928 C.3     1  UNL1        0.1108
      7 N          63.8974   90.0892   12.3661 N.pl3   1  UNL1       -0.2783
      8 C          64.7175   91.2694   12.7958 C.ar    1  UNL1        0.2035
      9 N          65.2025   92.2569   11.7761 N.ar    1  UNL1       -0.2133
     10 C          66.0225   93.4371   12.2057 C.ar    1  UNL1        0.1065
     11 C          66.3575   93.6299   13.6551 C.ar    1  UNL1        0.0815
     12 C          65.8726   92.6425   14.6748 C.ar    1  UNL1        0.2646
     13 O          66.2076   92.8353   16.1241 O.2     1  UNL1       -0.2668
     14 N          65.0525   91.4622   14.2451 N.ar    1  UNL1       -0.2667
     15 C          64.5675   90.4748   15.2648 C.3     1  UNL1        0.1363
     16 C          66.5074   94.4245   11.1860 C.ar    1  UNL1        0.1024
     17 C          66.0952   95.8637   11.2803 C.ar    1  UNL1        0.0414
     18 C          66.5802   96.8511   10.2606 C.ar    1  UNL1        0.1023
     19 N          67.4774   96.3994    9.1467 N.ar    1  UNL1       -0.2224
     20 C          67.8897   94.9602    9.0523 C.ar    1  UNL1        0.1989
     21 N          67.4047   93.9727   10.0720 N.ar    1  UNL1       -0.2224
     22 C          61.4374   86.5485   11.0772 C.3     1  UNL1        0.0992
     23 C          61.5246   86.0485    9.6657 C.ar    1  UNL1       -0.0061
     24 C          62.7747   85.3727    9.1853 C.ar    1  UNL1       -0.0029
     25 C          62.8619   84.8727    7.7738 C.ar    1  UNL1       -0.0003
     26 C          61.6991   85.0487    6.8426 C.ar    1  UNL1       -0.0000
     27 C          60.4492   85.7245    7.3229 C.ar    1  UNL1       -0.0003
     28 C          60.3619   86.2245    8.7345 C.ar    1  UNL1       -0.0029
@<TRIPOS>BOND
     1     2     1    1
     2     2     3    1
     3     3     4    1
     4     4    22    1
     5    22    23    1
     6    23    24   ar
     7    24    25   ar
     8    25    26   ar
     9    26    27   ar
    10    27    28   ar
    11     4     5    1
    12     5     6    1
    13     6     7    1
    14     7     8    1
    15     8     9   ar
    16     9    10   ar
    17    10    16    1
    18    16    17   ar
    19    17    18   ar
    20    18    19   ar
    21    19    20   ar
    22    20    21   ar
    23    10    11   ar
    24    11    12   ar
    25    12    13    2
    26    12    14   ar
    27    14    15    1
    28     7     2    1
    29    14     8   ar
    30    28    23   ar
    31    21    16   ar
@<TRIPOS>MOLECULE
*****
 28 31 0 0 0
SMALL
GASTEIGER

@<TRIPOS>ATOM
      1 C          63.9002   89.3546   14.2200 C.3     1  UNL1        0.0230
      2 C          64.1302   90.3132   13.0893 C.3     1  UNL1        0.0915
      3 C          64.9545   91.5471   13.3081 C.3     1  UNL1        0.0924
      4 N          65.1845   92.5056   12.1775 N.3     1  UNL1       -0.2660
      5 C          64.5902   92.2302   10.8281 C.3     1  UNL1        0.0942
      6 C          63.7659   90.9963   10.6093 C.3     1  UNL1        0.1108
      7 N          63.5359   90.0378   11.7400 N.pl3   1  UNL1       -0.2783
      8 C          62.7115   88.8038   11.5211 C.ar    1  UNL1        0.2035
      9 N          63.1369   87.5001   12.1291 N.ar    1  UNL1       -0.2133
     10 C          62.3126   86.2662   11.9103 C.ar    1  UNL1        0.1065
     11 C          61.0628   86.3359   11.0836 C.ar    1  UNL1        0.0815
     12 C          60.6375   87.6395   10.4756 C.ar    1  UNL1        0.2646
     13 O          59.3879   87.7093    9.6489 O.2     1  UNL1       -0.2668
     14 N          61.4619   88.8735   10.6944 N.ar    1  UNL1       -0.2667
     15 C          61.0365   90.1772   10.0865 C.3     1  UNL1        0.1363
     16 C          62.7379   84.9626   12.5182 C.ar    1  UNL1        0.1024
     17 C          63.1322   83.8163   11.6348 C.ar    1  UNL1        0.0414
     18 C          63.5576   82.5126   12.2427 C.ar    1  UNL1        0.1023
     19 N          63.5886   82.3553   13.7341 N.ar    1  UNL1       -0.2224
     20 C          63.1943   83.5016   14.6176 C.ar    1  UNL1        0.1989
     21 N          62.7689   84.8052   14.0097 N.ar    1  UNL1       -0.2224
     22 C          66.0089   93.7396   12.3963 C.3     1  UNL1        0.0992
     23 C          66.4445   94.5681   11.2242 C.ar    1  UNL1       -0.0061
     24 C          66.1017   96.0273   11.1684 C.ar    1  UNL1       -0.0029
     25 C          66.5373   96.8558    9.9963 C.ar    1  UNL1       -0.0003
     26 C          67.3158   96.2251    8.8800 C.ar    1  UNL1       -0.0000
     27 C          67.6586   94.7659    8.9358 C.ar    1  UNL1       -0.0003
     28 C          67.2230   93.9374   10.1079 C.ar    1  UNL1       -0.0029
@<TRIPOS>BOND
     1     2     1    1
     2     2     3    1
     3     3     4    1
     4     4    22    1
     5    22    23    1
     6    23    24   ar
     7    24    25   ar
     8    25    26   ar
     9    26    27   ar
    10    27    28   ar
    11     4     5    1
    12     5     6    1
    13     6     7    1
    14     7     8    1
    15     8     9   ar
    16     9    10   ar
    17    10    16    1
    18    16    17   ar
    19    17    18   ar
    20    18    19   ar
    21    19    20   ar
    22    20    21   ar
    23    10    11   ar
    24    11    12   ar
    25    12    13    2
    26    12    14   ar
    27    14    15    1
    28     7     2    1
    29    14     8   ar
    30    28    23   ar
    31    21    16   ar
@<TRIPOS>MOLECULE
*****
 28 31 0 0 0
SMALL
GASTEIGER

@<TRIPOS>ATOM
      1 C          62.9136   91.1296   10.6696 C.3     1  UNL1        0.0230
      2 C          63.0614   89.8659   11.4641 C.3     1  UNL1        0.0915
      3 C          62.3145   88.6311   11.0551 C.3     1  UNL1        0.0924
      4 N          62.4623   87.3674   11.8496 N.3     1  UNL1       -0.2660
      5 C          63.3571   87.3385   13.0531 C.3     1  UNL1        0.0942
      6 C          64.1041   88.5733   13.4621 C.3     1  UNL1        0.1108
      7 N          63.9562   89.8370   12.6676 N.pl3   1  UNL1       -0.2783
      8 C          64.7032   91.0718   13.0766 C.ar    1  UNL1        0.2035
      9 N          65.2232   92.0144   12.0320 N.ar    1  UNL1       -0.2133
     10 C          65.9701   93.2492   12.4410 C.ar    1  UNL1        0.1065
     11 C          66.1972   93.5414   13.8947 C.ar    1  UNL1        0.0815
     12 C          65.6773   92.5989   14.9393 C.ar    1  UNL1        0.2646
     13 O          65.9044   92.8910   16.3929 O.2     1  UNL1       -0.2668
     14 N          64.9303   91.3640   14.5302 N.ar    1  UNL1       -0.2667
     15 C          64.4104   90.4214   15.5748 C.3     1  UNL1        0.1363
     16 C          66.4900   94.1918   11.3964 C.ar    1  UNL1        0.1024
     17 C          66.1549   95.6520   11.4702 C.ar    1  UNL1        0.0414
     18 C          66.6749   96.5945   10.4256 C.ar    1  UNL1        0.1023
     19 N          67.5299   96.0769    9.3071 N.ar    1  UNL1       -0.2224
     20 C          67.8650   94.6167    9.2333 C.ar    1  UNL1        0.1989
     21 N          67.3451   93.6741   10.2779 N.ar    1  UNL1       -0.2224
     22 C          61.7153   86.1326   11.4405 C.3     1  UNL1        0.0992
     23 C          62.4544   84.8447   11.2282 C.ar    1  UNL1       -0.0061
     24 C          62.4420   83.7885   12.2933 C.ar    1  UNL1       -0.0029
     25 C          63.1812   82.5007   12.0811 C.ar    1  UNL1       -0.0003
     26 C          63.9327   82.2690   10.8037 C.ar    1  UNL1       -0.0000
     27 C          63.9451   83.3251    9.7387 C.ar    1  UNL1       -0.0003
     28 C          63.2059   84.6130    9.9510 C.ar    1  UNL1       -0.0029
@<TRIPOS>BOND
     1     2     1    1
     2     2     3    1
     3     3     4    1
     4     4    22    1
     5    22    23    1
     6    23    24   ar
     7    24    25   ar
     8    25    26   ar
     9    26    27   ar
    10    27    28   ar
    11     4     5    1
    12     5     6    1
    13     6     7    1
    14     7     8    1
    15     8     9   ar
    16     9    10   ar
    17    10    16    1
    18    16    17   ar
    19    17    18   ar
    20    18    19   ar
    21    19    20   ar
    22    20    21   ar
    23    10    11   ar
    24    11    12   ar
    25    12    13    2
    26    12    14   ar
    27    14    15    1
    28     7     2    1
    29    14     8   ar
    30    28    23   ar
    31    21    16   ar
@<TRIPOS>MOLECULE
*****
 28 31 0 0 0
SMALL
GASTEIGER

@<TRIPOS>ATOM
      1 C          64.2521   87.3636   14.6529 C.3     1  UNL1        0.0230
      2 C          64.1854   88.7296   14.0368 C.3     1  UNL1        0.0915
      3 C          64.7958   89.9025   14.7450 C.3     1  UNL1        0.0924
      4 N          64.7290   91.2685   14.1289 N.3     1  UNL1       -0.2660
      5 C          64.0518   91.4616   12.8045 C.3     1  UNL1        0.0942
      6 C          63.4414   90.2887   12.0963 C.3     1  UNL1        0.1108
      7 N          63.5082   88.9227   12.7124 N.pl3   1  UNL1       -0.2783
      8 C          62.8977   87.7498   12.0041 C.ar    1  UNL1        0.2035
      9 N          63.0603   86.3678   12.5641 N.ar    1  UNL1       -0.2133
     10 C          62.4499   85.1949   11.8559 C.ar    1  UNL1        0.1065
     11 C          61.6768   85.4040   10.5875 C.ar    1  UNL1        0.0815
     12 C          61.5142   86.7860   10.0275 C.ar    1  UNL1        0.2646
     13 O          60.7411   86.9951    8.7592 O.2     1  UNL1       -0.2668
     14 N          62.1246   87.9589   10.7358 N.ar    1  UNL1       -0.2667
     15 C          61.9620   89.3409   10.1757 C.3     1  UNL1        0.1363
     16 C          62.6125   83.8129   12.4159 C.ar    1  UNL1        0.1024
     17 C          62.8961   82.6605   11.4986 C.ar    1  UNL1        0.0414
     18 C          63.0588   81.2785   12.0586 C.ar    1  UNL1        0.1023
     19 N          62.9378   81.0489   13.5360 N.ar    1  UNL1       -0.2224
     20 C          62.6542   82.2014   14.4534 C.ar    1  UNL1        0.1989
     21 N          62.4916   83.5833   13.8933 N.ar    1  UNL1       -0.2224
     22 C          65.3395   92.4414   14.8372 C.3     1  UNL1        0.0992
     23 C          66.8311   92.5864   14.8997 C.ar    1  UNL1       -0.0061
     24 C          67.6890   91.9817   13.8280 C.ar    1  UNL1       -0.0029
     25 C          69.1807   92.1268   13.8905 C.ar    1  UNL1       -0.0003
     26 C          69.8145   92.8765   15.0247 C.ar    1  UNL1       -0.0000
     27 C          68.9566   93.4812   16.0963 C.ar    1  UNL1       -0.0003
     28 C          67.4649   93.3361   16.0338 C.ar    1  UNL1       -0.0029
@<TRIPOS>BOND
     1     2     1    1
     2     2     3    1
     3     3     4    1
     4     4    22    1
     5    22    23    1
     6    23    24   ar
     7    24    25   ar
     8    25    26   ar
     9    26    27   ar
    10    27    28   ar
    11     4     5    1
    12     5     6    1
    13     6     7    1
    14     7     8    1
    15     8     9   ar
    16     9    10   ar
    17    10    16    1
    18    16    17   ar
    19    17    18   ar
    20    18    19   ar
    21    19    20   ar
    22    20    21   ar
    23    10    11   ar
    24    11    12   ar
    25    12    13    2
    26    12    14   ar
    27    14    15    1
    28     7     2    1
    29    14     8   ar
    30    28    23   ar
    31    21    16   ar
@<TRIPOS>MOLECULE
*****
 28 31 0 0 0
SMALL
GASTEIGER

@<TRIPOS>ATOM
      1 C          60.4420   90.1033   11.7141 C.3     1  UNL1        0.0230
      2 C          60.5950   89.1743   10.5463 C.3     1  UNL1        0.0915
      3 C          59.7188   89.3359    9.3396 C.3     1  UNL1        0.0924
      4 N          59.8718   88.4069    8.1719 N.3     1  UNL1       -0.2660
      5 C          60.9010   87.3163    8.2109 C.3     1  UNL1        0.0942
      6 C          61.7771   87.1548    9.4176 C.3     1  UNL1        0.1108
      7 N          61.6241   88.0838   10.5853 N.pl3   1  UNL1       -0.2783
      8 C          62.5004   87.9223   11.7921 C.ar    1  UNL1        0.2035
      9 N          62.9987   89.1327   12.5246 N.ar    1  UNL1       -0.2133
     10 C          63.8749   88.9712   13.7313 C.ar    1  UNL1        0.1065
     11 C          64.2527   87.5992   14.2056 C.ar    1  UNL1        0.0815
     12 C          63.7544   86.3887   13.4731 C.ar    1  UNL1        0.2646
     13 O          64.1323   85.0168   13.9474 O.2     1  UNL1       -0.2668
     14 N          62.8782   86.5503   12.2664 N.ar    1  UNL1       -0.2667
     15 C          62.3799   85.3399   11.5339 C.3     1  UNL1        0.1363
     16 C          64.3732   90.1816   14.4638 C.ar    1  UNL1        0.1024
     17 C          65.5235   90.9709   13.9127 C.ar    1  UNL1        0.0414
     18 C          66.0218   92.1813   14.6452 C.ar    1  UNL1        0.1023
     19 N          65.3698   92.6025   15.9287 N.ar    1  UNL1       -0.2224
     20 C          64.2194   91.8132   16.4798 C.ar    1  UNL1        0.1989
     21 N          63.7211   90.6027   15.7474 N.ar    1  UNL1       -0.2224
     22 C          58.9956   88.5684    6.9651 C.3     1  UNL1        0.0992
     23 C          59.1194   89.7924    6.1069 C.ar    1  UNL1       -0.0061
     24 C          60.4684   90.2370    5.6247 C.ar    1  UNL1       -0.0029
     25 C          60.5922   91.4610    4.7665 C.ar    1  UNL1       -0.0003
     26 C          59.3669   92.2404    4.3904 C.ar    1  UNL1       -0.0000
     27 C          58.0179   91.7957    4.8727 C.ar    1  UNL1       -0.0003
     28 C          57.8942   90.5718    5.7309 C.ar    1  UNL1       -0.0029
@<TRIPOS>BOND
     1     2     1    1
     2     2     3    1
     3     3     4    1
     4     4    22    1
     5    22    23    1
     6    23    24   ar
     7    24    25   ar
     8    25    26   ar
     9    26    27   ar
    10    27    28   ar
    11     4     5    1
    12     5     6    1
    13     6     7    1
    14     7     8    1
    15     8     9   ar
    16     9    10   ar
    17    10    16    1
    18    16    17   ar
    19    17    18   ar
    20    18    19   ar
    21    19    20   ar
    22    20    21   ar
    23    10    11   ar
    24    11    12   ar
    25    12    13    2
    26    12    14   ar
    27    14    15    1
    28     7     2    1
    29    14     8   ar
    30    28    23   ar
    31    21    16   ar
@<TRIPOS>MOLECULE
*****
 28 31 0 0 0
SMALL
GASTEIGER

@<TRIPOS>ATOM
      1 C          62.7563   89.5569   11.6414 C.3     1  UNL1        0.0230
      2 C          63.1372   88.4543   12.5843 C.3     1  UNL1        0.0915
      3 C          62.5712   87.0779   12.3966 C.3     1  UNL1        0.0924
      4 N          62.9521   85.9753   13.3396 N.3     1  UNL1       -0.2660
      5 C          63.8990   86.2491   14.4703 C.3     1  UNL1        0.0942
      6 C          64.4649   87.6254   14.6580 C.3     1  UNL1        0.1108
      7 N          64.0840   88.7280   13.7150 N.pl3   1  UNL1       -0.2783
      8 C          64.6500   90.1045   13.9028 C.ar    1  UNL1        0.2035
      9 N          65.3534   90.7874   12.7676 N.ar    1  UNL1       -0.2133
     10 C          65.9194   92.1638   12.9553 C.ar    1  UNL1        0.1065
     11 C          65.7820   92.8572   14.2783 C.ar    1  UNL1        0.0815
     12 C          65.0786   92.1743   15.4135 C.ar    1  UNL1        0.2646
     13 O          64.9412   92.8677   16.7365 O.2     1  UNL1       -0.2668
     14 N          64.5126   90.7979   15.2258 N.ar    1  UNL1       -0.2667
     15 C          63.8092   90.1149   16.3610 C.3     1  UNL1        0.1363
     16 C          66.6228   92.8467   11.8200 C.ar    1  UNL1        0.1024
     17 C          67.5369   92.0641   10.9246 C.ar    1  UNL1        0.0414
     18 C          68.2403   92.7470    9.7894 C.ar    1  UNL1        0.1023
     19 N          68.0296   94.2126    9.5495 N.ar    1  UNL1       -0.2224
     20 C          67.1154   94.9953   10.4449 C.ar    1  UNL1        0.1989
     21 N          66.4120   94.3124   11.5802 N.ar    1  UNL1       -0.2224
     22 C          62.3861   84.5989   13.1518 C.3     1  UNL1        0.0992
     23 C          62.9406   83.6987   12.0878 C.ar    1  UNL1       -0.0061
     24 C          63.7448   84.2763   10.9609 C.ar    1  UNL1       -0.0029
     25 C          64.2993   83.3761    9.8969 C.ar    1  UNL1       -0.0003
     26 C          64.0496   81.8983    9.9597 C.ar    1  UNL1       -0.0000
     27 C          63.2455   81.3208   11.0866 C.ar    1  UNL1       -0.0003
     28 C          62.6910   82.2210   12.1506 C.ar    1  UNL1       -0.0029
@<TRIPOS>BOND
     1     2     1    1
     2     2     3    1
     3     3     4    1
     4     4    22    1
     5    22    23    1
     6    23    24   ar
     7    24    25   ar
     8    25    26   ar
     9    26    27   ar
    10    27    28   ar
    11     4     5    1
    12     5     6    1
    13     6     7    1
    14     7     8    1
    15     8     9   ar
    16     9    10   ar
    17    10    16    1
    18    16    17   ar
    19    17    18   ar
    20    18    19   ar
    21    19    20   ar
    22    20    21   ar
    23    10    11   ar
    24    11    12   ar
    25    12    13    2
    26    12    14   ar
    27    14    15    1
    28     7     2    1
    29    14     8   ar
    30    28    23   ar
    31    21    16   ar
@<TRIPOS>MOLECULE
*****
 28 31 0 0 0
SMALL
GASTEIGER

@<TRIPOS>ATOM
      1 C          62.0255   86.8429    8.8990 C.3     1  UNL1        0.0230
      2 C          62.4928   86.1476   10.1433 C.3     1  UNL1        0.0915
      3 C          62.7757   84.6748   10.1182 C.3     1  UNL1        0.0924
      4 N          63.2430   83.9795   11.3625 N.3     1  UNL1       -0.2660
      5 C          63.4274   84.7570   12.6318 C.3     1  UNL1        0.0942
      6 C          63.1445   86.2299   12.6569 C.3     1  UNL1        0.1108
      7 N          62.6772   86.9252   11.4127 N.pl3   1  UNL1       -0.2783
      8 C          62.3943   88.3981   11.4378 C.ar    1  UNL1        0.2035
      9 N          63.5192   89.3750   11.6118 N.ar    1  UNL1       -0.2133
     10 C          63.2364   90.8478   11.6370 C.ar    1  UNL1        0.1065
     11 C          61.8285   91.3438   11.4881 C.ar    1  UNL1        0.0815
     12 C          60.7036   90.3669   11.3141 C.ar    1  UNL1        0.2646
     13 O          59.2959   90.8629   11.1653 O.2     1  UNL1       -0.2668
     14 N          60.9865   88.8940   11.2890 N.ar    1  UNL1       -0.2667
     15 C          59.8616   87.9171   11.1150 C.3     1  UNL1        0.1363
     16 C          64.3613   91.8247   11.8110 C.ar    1  UNL1        0.1024
     17 C          64.9227   92.5421   10.6193 C.ar    1  UNL1        0.0414
     18 C          66.0476   93.5190   10.7933 C.ar    1  UNL1        0.1023
     19 N          66.6111   93.7785   12.1590 N.ar    1  UNL1       -0.2224
     20 C          66.0497   93.0610   13.3508 C.ar    1  UNL1        0.1989
     21 N          64.9248   92.0841   13.1768 N.ar    1  UNL1       -0.2224
     22 C          63.5259   82.5066   11.3373 C.3     1  UNL1        0.0992
     23 C          62.7933   81.5862   12.2680 C.ar    1  UNL1       -0.0061
     24 C          62.8689   80.1014   12.0679 C.ar    1  UNL1       -0.0029
     25 C          62.1363   79.1810   12.9986 C.ar    1  UNL1       -0.0003
     26 C          61.3280   79.7454   14.1292 C.ar    1  UNL1       -0.0000
     27 C          61.2524   81.2300   14.3292 C.ar    1  UNL1       -0.0003
     28 C          61.9850   82.1504   13.3985 C.ar    1  UNL1       -0.0029
@<TRIPOS>BOND
     1     2     1    1
     2     2     3    1
     3     3     4    1
     4     4    22    1
     5    22    23    1
     6    23    24   ar
     7    24    25   ar
     8    25    26   ar
     9    26    27   ar
    10    27    28   ar
    11     4     5    1
    12     5     6    1
    13     6     7    1
    14     7     8    1
    15     8     9   ar
    16     9    10   ar
    17    10    16    1
    18    16    17   ar
    19    17    18   ar
    20    18    19   ar
    21    19    20   ar
    22    20    21   ar
    23    10    11   ar
    24    11    12   ar
    25    12    13    2
    26    12    14   ar
    27    14    15    1
    28     7     2    1
    29    14     8   ar
    30    28    23   ar
    31    21    16   ar
