@<TRIPOS>MOLECULE
*****
 32 34 0 0 0
SMALL
GASTEIGER

@<TRIPOS>ATOM
      1 S          63.9480   89.4912   15.4126 S.O2    1  UNL1        0.0455
      2 O          62.6487   89.6380   16.1474 O.2     1  UNL1       -0.1572
      3 O          65.2474   89.3444   14.6777 O.2     1  UNL1       -0.1572
      4 C          63.4276   85.0215   15.3854 C.3     1  UNL1        0.0032
      5 C          64.0720   85.7086   14.2181 C.3     1  UNL1        0.0192
      6 C          64.2455   87.1985   14.2272 C.3     1  UNL1        0.0954
      7 N          63.7745   88.0013   15.4035 N.3     1  UNL1       -0.1594
      8 C          63.1301   87.3142   16.5708 C.3     1  UNL1        0.0954
      9 C          62.9566   85.8243   16.5617 C.3     1  UNL1        0.0192
     10 C          63.2541   83.5316   15.3763 C.3     1  UNL1        0.0049
     11 C          62.1819   82.9065   14.5339 C.3     1  UNL1        0.0305
     12 C          62.5883   84.5682   11.7549 C.3     1  UNL1        0.0553
     13 C          62.7124   83.0825   11.9199 C.ar    1  UNL1        0.0966
     14 N          63.0450   82.0998   10.8366 N.ar    1  UNL1       -0.0821
     15 O          63.0638   80.7285   11.4444 O.2     1  UNL1       -0.3584
     16 C          62.7428   80.8638   12.9035 C.ar    1  UNL1        0.1504
     17 C          62.6545   79.7414   13.8946 C.3     1  UNL1        0.0750
     18 C          62.5256   82.3187   13.1972 C.ar    1  UNL1        0.0274
     19 C          64.1215   90.9811   15.4216 C.3     1  UNL1        0.1895
     20 C          64.8202   91.6618   14.2821 C.3     1  UNL1        0.1103
     21 C          63.7087   90.9830   13.5380 C.3     1  UNL1        0.0281
     22 C          63.5976   91.1385   12.0502 C.3     1  UNL1        0.0683
     23 C          64.5981   91.9728   11.3066 C.3     1  UNL1        0.2640
     24 F          65.2969   92.6535   10.1671 F       1  UNL1       -0.2043
     25 F          63.7292   91.5304   10.1666 F       1  UNL1       -0.2043
     26 C          65.7097   92.6517   12.0507 C.3     1  UNL1        0.0683
     27 C          65.8206   92.4961   13.5385 C.3     1  UNL1        0.0281
     28 N          65.6890   92.1042   15.4220 N.am    1  UNL1       -0.1662
     29 O          65.0694   92.7113   16.6457 O.3     1  UNL1       -0.2915
     30 C          67.1776   91.9394   15.3383 C.2     1  UNL1        0.3267
     31 O          68.0465   92.3818   16.4782 O.2     1  UNL1       -0.2627
     32 H          64.1060   92.7445   16.5377 H       1  UNL1        0.2417
@<TRIPOS>BOND
     1    12    13    1
     2    13    14   ar
     3    14    15   ar
     4    15    16   ar
     5    16    17    1
     6    16    18   ar
     7    18    11    1
     8    11    10    1
     9    10     4    1
    10     4     5    1
    11     5     6    1
    12     6     7    1
    13     7     1    1
    14     1     2    2
    15     1     3    2
    16     1    19    1
    17    19    20    1
    18    20    28    1
    19    28    29    1
    20    28    30   am
    21    30    31    2
    22    20    21    1
    23    21    22    1
    24    22    23    1
    25    23    24    1
    26    23    25    1
    27    23    26    1
    28    26    27    1
    29     7     8    1
    30     8     9    1
    31    18    13   ar
    32     9     4    1
    33    27    20    1
    34    29    32    1
@<TRIPOS>MOLECULE
*****
 32 34 0 0 0
SMALL
GASTEIGER

@<TRIPOS>ATOM
      1 S          61.9384   88.5916   10.9673 S.O2    1  UNL1        0.0455
      2 O          61.1059   88.8925   12.1782 O.2     1  UNL1       -0.1572
      3 O          62.7709   88.2907    9.7564 O.2     1  UNL1       -0.1572
      4 C          64.6489   92.0397   11.9742 C.3     1  UNL1        0.0032
      5 C          64.3071   91.0233   13.0230 C.3     1  UNL1        0.0192
      6 C          63.4037   89.8740   12.6874 C.3     1  UNL1        0.0954
      7 N          62.8419   89.7410   11.3029 N.3     1  UNL1       -0.1594
      8 C          63.1836   90.7574   10.2541 C.3     1  UNL1        0.0954
      9 C          64.0871   91.9068   10.5897 C.3     1  UNL1        0.0192
     10 C          65.5524   93.1892   12.3098 C.3     1  UNL1        0.0049
     11 C          66.9167   93.2758   11.6924 C.3     1  UNL1        0.0305
     12 C          65.9707   96.3715   11.2791 C.3     1  UNL1        0.0553
     13 C          66.6970   95.5297   10.2723 C.ar    1  UNL1        0.0966
     14 N          67.1161   95.9630    8.8987 N.ar    1  UNL1       -0.0821
     15 O          67.8100   94.8078    8.2398 O.2     1  UNL1       -0.3584
     16 C          67.8197   93.6605    9.2062 C.ar    1  UNL1        0.1504
     17 C          68.4131   92.3051    8.9596 C.3     1  UNL1        0.0750
     18 C          67.1319   94.1068   10.4623 C.ar    1  UNL1        0.0274
     19 C          61.0349   87.4422   10.6318 C.3     1  UNL1        0.1895
     20 C          61.6169   86.0903   10.3429 C.3     1  UNL1        0.1103
     21 C          62.1426   86.3090   11.7306 C.3     1  UNL1        0.0281
     22 C          62.9975   85.2629   12.3823 C.3     1  UNL1        0.0683
     23 C          63.3267   83.9981   11.6462 C.3     1  UNL1        0.2640
     24 F          63.9087   82.6461   11.3573 F       1  UNL1       -0.2043
     25 F          64.0546   83.7472   12.9337 F       1  UNL1       -0.2043
     26 C          62.8011   83.7793   10.2585 C.3     1  UNL1        0.0683
     27 C          61.9462   84.8255    9.6069 C.3     1  UNL1        0.0281
     28 N          60.8891   86.3411    9.0555 N.am    1  UNL1       -0.1662
     29 O          61.5402   86.0020    7.7474 O.3     1  UNL1       -0.2915
     30 C          59.5101   86.9311    9.0762 C.2     1  UNL1        0.3267
     31 O          58.7823   87.1820    7.7888 O.2     1  UNL1       -0.2627
     32 H          62.4221   85.6329    7.9112 H       1  UNL1        0.2417
@<TRIPOS>BOND
     1    12    13    1
     2    13    14   ar
     3    14    15   ar
     4    15    16   ar
     5    16    17    1
     6    16    18   ar
     7    18    11    1
     8    11    10    1
     9    10     4    1
    10     4     5    1
    11     5     6    1
    12     6     7    1
    13     7     1    1
    14     1     2    2
    15     1     3    2
    16     1    19    1
    17    19    20    1
    18    20    28    1
    19    28    29    1
    20    28    30   am
    21    30    31    2
    22    20    21    1
    23    21    22    1
    24    22    23    1
    25    23    24    1
    26    23    25    1
    27    23    26    1
    28    26    27    1
    29     7     8    1
    30     8     9    1
    31    18    13   ar
    32     9     4    1
    33    27    20    1
    34    29    32    1
@<TRIPOS>MOLECULE
*****
 32 34 0 0 0
SMALL
GASTEIGER

@<TRIPOS>ATOM
      1 S          61.9328   88.5962   10.9650 S.O2    1  UNL1        0.0455
      2 O          61.0970   88.8873   12.1761 O.2     1  UNL1       -0.1572
      3 O          62.7686   88.3051    9.7540 O.2     1  UNL1       -0.1572
      4 C          64.6387   92.0379   12.0056 C.3     1  UNL1        0.0032
      5 C          64.2749   91.0269   13.0522 C.3     1  UNL1        0.0192
      6 C          63.3730   89.8797   12.7054 C.3     1  UNL1        0.0954
      7 N          62.8348   89.7435   11.3119 N.3     1  UNL1       -0.1594
      8 C          63.1985   90.7545   10.2653 C.3     1  UNL1        0.0954
      9 C          64.1005   91.9017   10.6121 C.3     1  UNL1        0.0192
     10 C          65.5407   93.1852   12.3525 C.3     1  UNL1        0.0049
     11 C          66.9054   93.2788   11.7372 C.3     1  UNL1        0.0305
     12 C          68.3730   92.2854    8.9970 C.3     1  UNL1        0.0553
     13 C          67.7907   93.6459    9.2418 C.ar    1  UNL1        0.0966
     14 N          67.7806   94.7886    8.2701 N.ar    1  UNL1       -0.0821
     15 O          67.0998   95.9515    8.9291 O.2     1  UNL1       -0.3584
     16 C          66.6890   95.5274   10.3081 C.ar    1  UNL1        0.1504
     17 C          65.9765   96.3788   11.3168 C.3     1  UNL1        0.0750
     18 C          67.1161   94.1025   10.5013 C.ar    1  UNL1        0.0274
     19 C          61.0308   87.4490   10.6183 C.3     1  UNL1        0.1895
     20 C          61.6136   86.0972   10.3301 C.3     1  UNL1        0.1103
     21 C          62.1410   86.3181   11.7169 C.3     1  UNL1        0.0281
     22 C          62.9978   85.2735   12.3687 C.3     1  UNL1        0.0683
     23 C          63.3271   84.0081   11.6336 C.3     1  UNL1        0.2640
     24 F          63.9099   82.6563   11.3455 F       1  UNL1       -0.2043
     25 F          64.0569   83.7594   12.9204 F       1  UNL1       -0.2043
     26 C          62.7997   83.7872   10.2469 C.3     1  UNL1        0.0683
     27 C          61.9430   84.8318    9.5952 C.3     1  UNL1        0.0281
     28 N          60.8838   86.3459    9.0435 N.am    1  UNL1       -0.1662
     29 O          61.5296   85.9971    7.7353 O.3     1  UNL1       -0.2915
     30 C          59.5081   86.9434    9.0649 C.2     1  UNL1        0.3267
     31 O          58.7783   87.1920    7.7782 O.2     1  UNL1       -0.2627
     32 H          62.4100   85.6241    7.8986 H       1  UNL1        0.2417
@<TRIPOS>BOND
     1    12    13    1
     2    13    14   ar
     3    14    15   ar
     4    15    16   ar
     5    16    17    1
     6    16    18   ar
     7    18    11    1
     8    11    10    1
     9    10     4    1
    10     4     5    1
    11     5     6    1
    12     6     7    1
    13     7     1    1
    14     1     2    2
    15     1     3    2
    16     1    19    1
    17    19    20    1
    18    20    28    1
    19    28    29    1
    20    28    30   am
    21    30    31    2
    22    20    21    1
    23    21    22    1
    24    22    23    1
    25    23    24    1
    26    23    25    1
    27    23    26    1
    28    26    27    1
    29     7     8    1
    30     8     9    1
    31    18    13   ar
    32     9     4    1
    33    27    20    1
    34    29    32    1
@<TRIPOS>MOLECULE
*****
 32 34 0 0 0
SMALL
GASTEIGER

@<TRIPOS>ATOM
      1 S          62.5825   89.2473   11.8954 S.O2    1  UNL1        0.0455
      2 O          62.8187   89.1450   10.4177 O.2     1  UNL1       -0.1572
      3 O          62.3464   89.3497   13.3731 O.2     1  UNL1       -0.1572
      4 C          65.3594   92.7827   12.0940 C.3     1  UNL1        0.0032
      5 C          64.6014   92.4944   10.8322 C.3     1  UNL1        0.0192
      6 C          63.6758   91.3160   10.7660 C.3     1  UNL1        0.0954
      7 N          63.5082   90.4258   11.9616 N.3     1  UNL1       -0.1594
      8 C          64.2662   90.7141   13.2235 C.3     1  UNL1        0.0954
      9 C          65.1918   91.8926   13.2897 C.3     1  UNL1        0.0192
     10 C          66.2851   93.9613   12.1603 C.3     1  UNL1        0.0049
     11 C          66.5760   94.7570   10.9225 C.3     1  UNL1        0.0305
     12 C          68.2922   91.9835   11.0302 C.3     1  UNL1        0.0553
     13 C          68.0773   92.8407    9.8182 C.ar    1  UNL1        0.0966
     14 N          68.6135   92.5737    8.4430 N.ar    1  UNL1       -0.0821
     15 O          68.1560   93.6836    7.5435 O.2     1  UNL1       -0.3584
     16 C          67.3370   94.6365    8.3629 C.ar    1  UNL1        0.1504
     17 C          66.6818   95.8902    7.8640 C.3     1  UNL1        0.0750
     18 C          67.2884   94.1156    9.7687 C.ar    1  UNL1        0.0274
     19 C          61.6569   88.0689   11.8291 C.3     1  UNL1        0.1895
     20 C          60.8306   87.8324   10.5997 C.3     1  UNL1        0.1103
     21 C          61.9739   86.8999   10.3285 C.3     1  UNL1        0.0281
     22 C          61.9934   86.0834    9.0704 C.3     1  UNL1        0.0683
     23 C          60.8697   86.1993    8.0836 C.3     1  UNL1        0.2640
     24 F          60.0434   85.9628    6.8542 F       1  UNL1       -0.2043
     25 F          61.7260   85.1846    7.3853 F       1  UNL1       -0.2043
     26 C          59.7265   87.1317    8.3548 C.3     1  UNL1        0.0683
     27 C          59.7070   87.9483    9.6129 C.3     1  UNL1        0.0281
     28 N          59.9744   88.8470   11.2979 N.am    1  UNL1       -0.1662
     29 O          59.3236   88.5067   12.6059 O.3     1  UNL1       -0.2915
     30 C          59.7689   90.2020   10.6882 C.2     1  UNL1        0.3267
     31 O          58.9127   91.2165   11.3864 O.2     1  UNL1       -0.2627
     32 H          59.5570   87.5992   12.8567 H       1  UNL1        0.2417
@<TRIPOS>BOND
     1    12    13    1
     2    13    14   ar
     3    14    15   ar
     4    15    16   ar
     5    16    17    1
     6    16    18   ar
     7    18    11    1
     8    11    10    1
     9    10     4    1
    10     4     5    1
    11     5     6    1
    12     6     7    1
    13     7     1    1
    14     1     2    2
    15     1     3    2
    16     1    19    1
    17    19    20    1
    18    20    28    1
    19    28    29    1
    20    28    30   am
    21    30    31    2
    22    20    21    1
    23    21    22    1
    24    22    23    1
    25    23    24    1
    26    23    25    1
    27    23    26    1
    28    26    27    1
    29     7     8    1
    30     8     9    1
    31    18    13   ar
    32     9     4    1
    33    27    20    1
    34    29    32    1
@<TRIPOS>MOLECULE
*****
 32 34 0 0 0
SMALL
GASTEIGER

@<TRIPOS>ATOM
      1 S          63.7450   89.8291   13.5705 S.O2    1  UNL1        0.0455
      2 O          64.9236   89.2998   14.3326 O.2     1  UNL1       -0.1572
      3 O          62.5665   90.3584   12.8084 O.2     1  UNL1       -0.1572
      4 C          62.8819   85.6898   12.0307 C.3     1  UNL1        0.0032
      5 C          63.6507   85.8704   13.3060 C.3     1  UNL1        0.0192
      6 C          63.9384   87.2502   13.8192 C.3     1  UNL1        0.0954
      7 N          63.4573   88.4493   13.0572 N.3     1  UNL1       -0.1594
      8 C          62.6885   88.2686   11.7820 C.3     1  UNL1        0.0954
      9 C          62.4008   86.8889   11.2687 C.3     1  UNL1        0.0192
     10 C          62.5942   84.3100   11.5174 C.3     1  UNL1        0.0049
     11 C          63.5324   83.1824   11.8308 C.3     1  UNL1        0.0305
     12 C          62.9544   80.2298   10.5670 C.3     1  UNL1        0.0553
     13 C          62.7725   80.6254   12.0023 C.ar    1  UNL1        0.0966
     14 N          62.2930   79.7333   13.1088 N.ar    1  UNL1       -0.0821
     15 O          62.2623   80.5391   14.3737 O.2     1  UNL1       -0.3584
     16 C          62.7229   81.9293   14.0488 C.ar    1  UNL1        0.1504
     17 C          62.8465   83.0664   15.0192 C.3     1  UNL1        0.0750
     18 C          63.0382   81.9825   12.5833 C.ar    1  UNL1        0.0274
     19 C          64.0328   91.2088   14.0838 C.3     1  UNL1        0.1895
     20 C          65.2107   91.9742   13.5578 C.3     1  UNL1        0.1103
     21 C          64.4555   91.7489   12.2815 C.3     1  UNL1        0.0281
     22 C          64.9984   92.2750   10.9859 C.3     1  UNL1        0.0683
     23 C          66.2966   93.0263   10.9667 C.3     1  UNL1        0.2640
     24 F          67.4745   93.7917   10.4407 F       1  UNL1       -0.2043
     25 F          65.9504   93.0668    9.5077 F       1  UNL1       -0.2043
     26 C          67.0518   93.2516   12.2430 C.3     1  UNL1        0.0683
     27 C          66.5088   92.7255   13.5385 C.3     1  UNL1        0.0281
     28 N          65.5568   91.9337   15.0168 N.am    1  UNL1       -0.1662
     29 O          66.9235   91.4945   15.4515 O.3     1  UNL1       -0.2915
     30 C          64.5360   92.3324   16.0411 C.2     1  UNL1        0.3267
     31 O          64.8821   92.2918   17.5000 O.2     1  UNL1       -0.2627
     32 H          67.4557   91.2738   14.6712 H       1  UNL1        0.2417
@<TRIPOS>BOND
     1    12    13    1
     2    13    14   ar
     3    14    15   ar
     4    15    16   ar
     5    16    17    1
     6    16    18   ar
     7    18    11    1
     8    11    10    1
     9    10     4    1
    10     4     5    1
    11     5     6    1
    12     6     7    1
    13     7     1    1
    14     1     2    2
    15     1     3    2
    16     1    19    1
    17    19    20    1
    18    20    28    1
    19    28    29    1
    20    28    30   am
    21    30    31    2
    22    20    21    1
    23    21    22    1
    24    22    23    1
    25    23    24    1
    26    23    25    1
    27    23    26    1
    28    26    27    1
    29     7     8    1
    30     8     9    1
    31    18    13   ar
    32     9     4    1
    33    27    20    1
    34    29    32    1
@<TRIPOS>MOLECULE
*****
 32 34 0 0 0
SMALL
GASTEIGER

@<TRIPOS>ATOM
      1 S          62.0527   87.4762   11.3295 S.O2    1  UNL1        0.0455
      2 O          60.8730   87.9852   10.5553 O.2     1  UNL1       -0.1572
      3 O          63.2323   86.9673   12.1037 O.2     1  UNL1       -0.1572
      4 C          63.8251   91.6124   11.3477 C.3     1  UNL1        0.0032
      5 C          63.9385   90.7425   12.5644 C.3     1  UNL1        0.0192
      6 C          63.3477   89.3638   12.5583 C.3     1  UNL1        0.0954
      7 N          62.6435   88.8550   11.3355 N.3     1  UNL1       -0.1594
      8 C          62.5302   89.7249   10.1188 C.3     1  UNL1        0.0954
      9 C          63.1210   91.1035   10.1249 C.3     1  UNL1        0.0192
     10 C          64.4160   92.9912   11.3538 C.3     1  UNL1        0.0049
     11 C          65.7950   93.2186   10.8094 C.3     1  UNL1        0.0305
     12 C          66.2459   93.1520   14.0407 C.3     1  UNL1        0.0553
     13 C          67.1932   92.6186   13.0072 C.ar    1  UNL1        0.0966
     14 N          68.5140   91.9611   13.2775 N.ar    1  UNL1       -0.0821
     15 O          69.1231   91.5853   11.9592 O.2     1  UNL1       -0.3584
     16 C          68.1787   92.0106   10.8742 C.ar    1  UNL1        0.1504
     17 C          68.3899   91.8291    9.4003 C.3     1  UNL1        0.0750
     18 C          66.9860   92.6492   11.5220 C.ar    1  UNL1        0.0274
     19 C          61.4618   86.0975   11.3234 C.3     1  UNL1        0.1895
     20 C          62.3568   84.8985   11.2169 C.3     1  UNL1        0.1103
     21 C          62.2837   85.0372   12.7086 C.3     1  UNL1        0.0281
     22 C          63.0230   84.0733   13.5887 C.3     1  UNL1        0.0683
     23 C          63.8353   82.9707   12.9768 C.3     1  UNL1        0.2640
     24 F          64.7303   81.7717   12.8703 F       1  UNL1       -0.2043
     25 F          64.0731   82.6930   14.4317 F       1  UNL1       -0.2043
     26 C          63.9084   82.8320   11.4850 C.3     1  UNL1        0.0683
     27 C          63.1691   83.7959   10.6051 C.3     1  UNL1        0.0281
     28 N          62.1190   85.1762    9.7621 N.am    1  UNL1       -0.1662
     29 O          60.7758   85.6582    9.3002 O.3     1  UNL1       -0.2915
     30 C          63.2246   84.9718    8.7691 C.2     1  UNL1        0.3267
     31 O          62.9869   85.2496    7.3144 O.2     1  UNL1       -0.2627
     32 H          60.1808   85.7363   10.0623 H       1  UNL1        0.2417
@<TRIPOS>BOND
     1    12    13    1
     2    13    14   ar
     3    14    15   ar
     4    15    16   ar
     5    16    17    1
     6    16    18   ar
     7    18    11    1
     8    11    10    1
     9    10     4    1
    10     4     5    1
    11     5     6    1
    12     6     7    1
    13     7     1    1
    14     1     2    2
    15     1     3    2
    16     1    19    1
    17    19    20    1
    18    20    28    1
    19    28    29    1
    20    28    30   am
    21    30    31    2
    22    20    21    1
    23    21    22    1
    24    22    23    1
    25    23    24    1
    26    23    25    1
    27    23    26    1
    28    26    27    1
    29     7     8    1
    30     8     9    1
    31    18    13   ar
    32     9     4    1
    33    27    20    1
    34    29    32    1
@<TRIPOS>MOLECULE
*****
 32 34 0 0 0
SMALL
GASTEIGER

@<TRIPOS>ATOM
      1 S          64.5418   91.6321   12.1503 S.O2    1  UNL1        0.0455
      2 O          65.0089   90.9405   13.3967 O.2     1  UNL1       -0.1572
      3 O          64.0747   92.3237   10.9040 O.2     1  UNL1       -0.1572
      4 C          62.2513   87.9451   10.9631 C.3     1  UNL1        0.0032
      5 C          62.9491   87.9998   12.2898 C.3     1  UNL1        0.0192
      6 C          63.7125   89.2288   12.6855 C.3     1  UNL1        0.0954
      7 N          63.7783   90.4031   11.7546 N.3     1  UNL1       -0.1594
      8 C          63.0805   90.3484   10.4279 C.3     1  UNL1        0.0954
      9 C          62.3170   89.1194   10.0322 C.3     1  UNL1        0.0192
     10 C          61.4877   86.7161   10.5674 C.3     1  UNL1        0.0049
     11 C          61.6650   85.4421   11.3390 C.3     1  UNL1        0.0305
     12 C          63.2467   83.5539   13.4796 C.3     1  UNL1        0.0553
     13 C          63.5435   83.6639   12.0134 C.ar    1  UNL1        0.0966
     14 N          64.6194   82.9254   11.2738 N.ar    1  UNL1       -0.0821
     15 O          64.5573   83.3369    9.8326 O.2     1  UNL1       -0.3584
     16 C          63.4430   84.3298    9.6816 C.ar    1  UNL1        0.1504
     17 C          63.0281   85.0024    8.4067 C.3     1  UNL1        0.0750
     18 C          62.8165   84.5318   11.0295 C.ar    1  UNL1        0.0274
     19 C          65.3054   92.8610   12.5461 C.3     1  UNL1        0.1895
     20 C          66.6535   92.7312   13.1909 C.3     1  UNL1        0.1103
     21 C          65.7740   92.6183   14.4008 C.3     1  UNL1        0.0281
     22 C          66.3856   92.4304   15.7576 C.3     1  UNL1        0.0683
     23 C          67.8765   92.3555   15.9044 C.3     1  UNL1        0.2640
     24 F          69.2246   92.2257   16.5492 F       1  UNL1       -0.2043
     25 F          67.4652   92.1974   17.3383 F       1  UNL1       -0.2043
     26 C          68.7559   92.4685   14.6945 C.3     1  UNL1        0.0683
     27 C          68.1443   92.6563   13.3378 C.3     1  UNL1        0.0281
     28 N          67.0646   92.8893   11.7571 N.am    1  UNL1       -0.1662
     29 O          67.9676   91.8753   11.1196 O.3     1  UNL1       -0.2915
     30 C          66.5728   94.0614   10.9607 C.2     1  UNL1        0.3267
     31 O          66.9840   94.2195    9.5268 O.2     1  UNL1       -0.2627
     32 H          68.1907   91.1884   11.7672 H       1  UNL1        0.2417
@<TRIPOS>BOND
     1    12    13    1
     2    13    14   ar
     3    14    15   ar
     4    15    16   ar
     5    16    17    1
     6    16    18   ar
     7    18    11    1
     8    11    10    1
     9    10     4    1
    10     4     5    1
    11     5     6    1
    12     6     7    1
    13     7     1    1
    14     1     2    2
    15     1     3    2
    16     1    19    1
    17    19    20    1
    18    20    28    1
    19    28    29    1
    20    28    30   am
    21    30    31    2
    22    20    21    1
    23    21    22    1
    24    22    23    1
    25    23    24    1
    26    23    25    1
    27    23    26    1
    28    26    27    1
    29     7     8    1
    30     8     9    1
    31    18    13   ar
    32     9     4    1
    33    27    20    1
    34    29    32    1
@<TRIPOS>MOLECULE
*****
 32 34 0 0 0
SMALL
GASTEIGER

@<TRIPOS>ATOM
      1 S          62.0135   88.1461   10.8186 S.O2    1  UNL1        0.0455
      2 O          61.1365   88.5094   11.9799 O.2     1  UNL1       -0.1572
      3 O          62.8905   87.7827    9.6572 O.2     1  UNL1       -0.1572
      4 C          64.2180   92.0437   11.2639 C.3     1  UNL1        0.0032
      5 C          64.1355   91.0924   12.4206 C.3     1  UNL1        0.0192
      6 C          63.4007   89.7932   12.2722 C.3     1  UNL1        0.0954
      7 N          62.7483   89.4453   10.9670 N.3     1  UNL1       -0.1594
      8 C          62.8308   90.3967    9.8103 C.3     1  UNL1        0.0954
      9 C          63.5657   91.6959    9.9587 C.3     1  UNL1        0.0192
     10 C          64.9528   93.3430   11.4123 C.3     1  UNL1        0.0049
     11 C          65.7626   93.6099   12.6464 C.3     1  UNL1        0.0305
     12 C          67.6744   92.2980   10.3500 C.3     1  UNL1        0.0553
     13 C          67.9154   92.2520   11.8297 C.ar    1  UNL1        0.0966
     14 N          69.0774   91.5948   12.5138 N.ar    1  UNL1       -0.0821
     15 O          68.9168   91.7917   13.9921 O.2     1  UNL1       -0.3584
     16 C          67.6555   92.5706   14.2217 C.ar    1  UNL1        0.1504
     17 C          67.1091   92.9911   15.5539 C.3     1  UNL1        0.0750
     18 C          67.0367   92.8550   12.8853 C.ar    1  UNL1        0.0274
     19 C          61.2787   86.8469   10.6702 C.3     1  UNL1        0.1895
     20 C          62.0417   85.5748   10.4474 C.3     1  UNL1        0.1103
     21 C          62.3487   85.8124   11.8963 C.3     1  UNL1        0.0281
     22 C          63.2201   84.8488   12.6461 C.3     1  UNL1        0.0683
     23 C          63.7845   83.6477   11.9470 C.3     1  UNL1        0.2640
     24 F          64.5475   82.3756   11.7242 F       1  UNL1       -0.2043
     25 F          64.3565   83.4435   13.3186 F       1  UNL1       -0.2043
     26 C          63.4775   83.4101   10.4981 C.3     1  UNL1        0.0683
     27 C          62.6061   84.3737    9.7484 C.3     1  UNL1        0.0281
     28 N          61.4697   85.7790    9.0759 N.am    1  UNL1       -0.1662
     29 O          62.3010   85.4785    7.8641 O.3     1  UNL1       -0.2915
     30 C          60.0662   86.2839    8.9162 C.2     1  UNL1        0.3267
     31 O          59.4942   86.4881    7.5447 O.2     1  UNL1       -0.2627
     32 H          63.1756   85.1641    8.1418 H       1  UNL1        0.2417
@<TRIPOS>BOND
     1    12    13    1
     2    13    14   ar
     3    14    15   ar
     4    15    16   ar
     5    16    17    1
     6    16    18   ar
     7    18    11    1
     8    11    10    1
     9    10     4    1
    10     4     5    1
    11     5     6    1
    12     6     7    1
    13     7     1    1
    14     1     2    2
    15     1     3    2
    16     1    19    1
    17    19    20    1
    18    20    28    1
    19    28    29    1
    20    28    30   am
    21    30    31    2
    22    20    21    1
    23    21    22    1
    24    22    23    1
    25    23    24    1
    26    23    25    1
    27    23    26    1
    28    26    27    1
    29     7     8    1
    30     8     9    1
    31    18    13   ar
    32     9     4    1
    33    27    20    1
    34    29    32    1
@<TRIPOS>MOLECULE
*****
 32 34 0 0 0
SMALL
GASTEIGER

@<TRIPOS>ATOM
      1 S          61.6476   95.4347   -0.8899 S.O2    1  UNL1        0.0455
      2 O          62.2265   94.1166   -1.3111 O.2     1  UNL1       -0.1572
      3 O          61.0686   96.7528   -0.4686 O.2     1  UNL1       -0.1572
      4 C          58.5915   95.1436   -4.1801 C.3     1  UNL1        0.0032
      5 C          59.6610   94.0994   -4.0554 C.3     1  UNL1        0.0192
      6 C          60.6797   94.1964   -2.9586 C.3     1  UNL1        0.0954
      7 N          60.6288   95.3377   -1.9866 N.3     1  UNL1       -0.1594
      8 C          59.5594   96.3820   -2.1114 C.3     1  UNL1        0.0954
      9 C          58.5407   96.2850   -3.2081 C.3     1  UNL1        0.0192
     10 C          57.5728   95.0466   -5.2769 C.3     1  UNL1        0.0049
     11 C          56.2676   94.3504   -5.0288 C.3     1  UNL1        0.0305
     12 C          57.1048   91.3063   -4.2030 C.3     1  UNL1        0.0553
     13 C          56.3929   92.2934   -3.3263 C.ar    1  UNL1        0.0966
     14 N          55.9407   92.0547   -1.9161 N.ar    1  UNL1       -0.0821
     15 O          55.2765   93.3064   -1.4241 O.2     1  UNL1       -0.3584
     16 C          55.3181   94.3187   -2.5303 C.ar    1  UNL1        0.1504
     17 C          54.7665   95.7124   -2.4712 C.3     1  UNL1        0.0750
     18 C          56.0080   93.6926   -3.7059 C.ar    1  UNL1        0.0274
     19 C          62.6663   95.5317    0.2069 C.3     1  UNL1        0.1895
     20 C          63.0615   94.3048    0.9740 C.3     1  UNL1        0.1103
     21 C          61.6468   94.4630    1.4466 C.3     1  UNL1        0.0281
     22 C          61.0709   93.4873    2.4298 C.3     1  UNL1        0.0683
     23 C          61.9099   92.3535    2.9401 C.3     1  UNL1        0.2640
     24 F          62.3052   91.1265    3.7073 F       1  UNL1       -0.2043
     25 F          60.6324   92.0855    3.6793 F       1  UNL1       -0.2043
     26 C          63.3247   92.1952    2.4675 C.3     1  UNL1        0.0683
     27 C          63.9004   93.1709    1.4844 C.3     1  UNL1        0.0281
     28 N          64.3390   94.5727    0.2349 N.am    1  UNL1       -0.1662
     29 O          65.0103   93.4688   -0.5272 O.3     1  UNL1       -0.2915
     30 C          64.9452   95.9446    0.2578 C.2     1  UNL1        0.3267
     31 O          66.2227   96.2125   -0.4813 O.2     1  UNL1       -0.2627
     32 H          64.4920   92.6536   -0.4394 H       1  UNL1        0.2417
@<TRIPOS>BOND
     1    12    13    1
     2    13    14   ar
     3    14    15   ar
     4    15    16   ar
     5    16    17    1
     6    16    18   ar
     7    18    11    1
     8    11    10    1
     9    10     4    1
    10     4     5    1
    11     5     6    1
    12     6     7    1
    13     7     1    1
    14     1     2    2
    15     1     3    2
    16     1    19    1
    17    19    20    1
    18    20    28    1
    19    28    29    1
    20    28    30   am
    21    30    31    2
    22    20    21    1
    23    21    22    1
    24    22    23    1
    25    23    24    1
    26    23    25    1
    27    23    26    1
    28    26    27    1
    29     7     8    1
    30     8     9    1
    31    18    13   ar
    32     9     4    1
    33    27    20    1
    34    29    32    1
