@<TRIPOS>MOLECULE
*****
 32 36 0 0 0
SMALL
GASTEIGER

@<TRIPOS>ATOM
      1 C          63.6662   88.7448   15.7943 C.ar    1  UNL1        0.0207
      2 C          64.4330   88.1387   14.6565 C.ar    1  UNL1        0.0994
      3 N          64.5940   86.6499   14.5692 N.ar    1  UNL1       -0.2126
      4 C          63.9880   85.7671   15.6198 C.ar    1  UNL1        0.2172
      5 N          63.2211   86.3733   16.7576 N.ar    1  UNL1       -0.2126
      6 C          63.0602   87.8621   16.8449 C.ar    1  UNL1        0.0994
      7 N          64.1489   84.2784   15.5325 N.pl3   1  UNL1       -0.2978
      8 H          64.8404   83.8258   16.0675 H       1  UNL1        0.1500
      9 C          63.2562   83.4791   14.6301 C.3     1  UNL1        0.1360
     10 C          63.3190   83.6786   13.1447 C.ar    1  UNL1        0.0802
     11 C          64.2708   82.8654   12.3184 C.ar    1  UNL1        0.0165
     12 C          64.3335   83.0648   10.8330 C.ar    1  UNL1        0.0041
     13 C          63.4446   84.0775   10.1740 C.ar    1  UNL1        0.0343
     14 C          62.4928   84.8906   11.0004 C.ar    1  UNL1        0.1315
     15 N          62.4301   84.6912   12.4857 N.ar    1  UNL1       -0.2333
     16 N          61.6038   85.9033   10.3414 N.pl3   1  UNL1       -0.2881
     17 C          60.9785   86.9961   11.1568 C.3     1  UNL1        0.1242
     18 C          60.0895   88.0086   10.4978 C.3     1  UNL1        0.1636
     19 O          59.8259   87.9285    9.0233 O.3     1  UNL1       -0.3501
     20 C          60.4512   86.8358    8.2079 C.3     1  UNL1        0.1636
     21 C          61.3401   85.8232    8.8669 C.3     1  UNL1        0.1242
     22 C          63.5053   90.2335   15.8815 C.3     1  UNL1        0.0596
     23 C          62.6888   90.5879   10.0506 C.3     1  UNL1        0.0307
     24 C          63.5900   91.1642   11.1021 C.2     1  UNL1        0.0074
     25 C          64.6606   92.1422   10.7183 C.2     1  UNL1        0.2278
     26 N          65.5619   92.7185   11.7698 N.2     1  UNL1       -0.0314
     27 C          65.3925   92.3169   13.2050 C.2     1  UNL1        0.3716
     28 N          66.1252   92.7149   14.4519 N.2     1  UNL1       -0.0311
     29 C          65.5074   91.9830   15.6063 C.2     1  UNL1        0.2319
     30 C          64.3929   91.1325   15.0729 C.2     1  UNL1        0.0328
     31 C          64.3219   91.3389   13.5888 C.2     1  UNL1        0.0704
     32 C          63.4207   90.7626   12.5373 C.3     1  UNL1        0.0598
@<TRIPOS>BOND
     1    23    24    1
     2    24    25    2
     3    25    26    1
     4    26    27    2
     5    27    28    1
     6    28    29    2
     7    29    30    1
     8    30    22    1
     9    22     1    1
    10     1     2   ar
    11     2     3   ar
    12     3     4   ar
    13     4     7    1
    14     7     9    1
    15     9    10    1
    16    10    11   ar
    17    11    12   ar
    18    12    13   ar
    19    13    14   ar
    20    14    16    1
    21    16    17    1
    22    17    18    1
    23    18    19    1
    24    19    20    1
    25    20    21    1
    26    14    15   ar
    27     4     5   ar
    28     5     6   ar
    29    30    31    2
    30    31    32    1
    31    32    24    1
    32    31    27    1
    33     6     1   ar
    34    15    10   ar
    35    21    16    1
    36     7     8    1
@<TRIPOS>MOLECULE
*****
 32 36 0 0 0
SMALL
GASTEIGER

@<TRIPOS>ATOM
      1 C          64.6171   91.4003   12.6776 C.ar    1  UNL1        0.0207
      2 C          63.9596   91.4328   11.3298 C.ar    1  UNL1        0.0994
      3 N          62.6813   90.6823   11.1006 N.ar    1  UNL1       -0.2126
      4 C          62.0604   89.8991   12.2192 C.ar    1  UNL1        0.2172
      5 N          62.7180   89.8666   13.5670 N.ar    1  UNL1       -0.2126
      6 C          63.9963   90.6172   13.7963 C.ar    1  UNL1        0.0994
      7 N          60.7821   89.1486   11.9899 N.pl3   1  UNL1       -0.2978
      8 H          60.0611   89.1883   12.6591 H       1  UNL1        0.1500
      9 C          60.6023   88.3374   10.7410 C.3     1  UNL1        0.1360
     10 C          61.4202   87.0983   10.5273 C.ar    1  UNL1        0.0802
     11 C          61.9175   86.7555    9.1543 C.ar    1  UNL1        0.0165
     12 C          62.7354   85.5164    8.9406 C.ar    1  UNL1        0.0041
     13 C          63.0559   84.6200   10.0998 C.ar    1  UNL1        0.0343
     14 C          62.5585   84.9629   11.4729 C.ar    1  UNL1        0.1315
     15 N          61.7407   86.2020   11.6865 N.ar    1  UNL1       -0.2333
     16 N          62.8791   84.0666   12.6321 N.pl3   1  UNL1       -0.2881
     17 C          62.6850   82.5842   12.5102 C.3     1  UNL1        0.1242
     18 C          63.0055   81.6879   13.6694 C.3     1  UNL1        0.1636
     19 O          63.5202   82.2740   14.9506 O.3     1  UNL1       -0.3501
     20 C          63.7143   83.7564   15.0726 C.3     1  UNL1        0.1636
     21 C          63.3938   84.6527   13.9134 C.3     1  UNL1        0.1242
     22 C          65.8954   92.1509   12.9068 C.3     1  UNL1        0.0596
     23 C          64.6108   96.8549    9.5882 C.3     1  UNL1        0.0307
     24 C          65.6458   95.7716    9.6596 C.2     1  UNL1        0.0074
     25 C          66.7592   95.7306    8.6553 C.2     1  UNL1        0.2278
     26 N          67.7942   94.6472    8.7267 N.2     1  UNL1       -0.0314
     27 C          67.7158   93.6048    9.8024 C.2     1  UNL1        0.3716
     28 N          68.5851   92.4249   10.1219 N.2     1  UNL1       -0.0311
     29 C          68.0090   91.7367   11.3238 C.2     1  UNL1        0.2319
     30 C          66.7836   92.4912   11.7470 C.2     1  UNL1        0.0328
     31 C          66.6025   93.6458   10.8067 C.2     1  UNL1        0.0704
     32 C          65.5675   94.7292   10.7353 C.3     1  UNL1        0.0598
@<TRIPOS>BOND
     1    23    24    1
     2    24    25    2
     3    25    26    1
     4    26    27    2
     5    27    28    1
     6    28    29    2
     7    29    30    1
     8    30    22    1
     9    22     1    1
    10     1     2   ar
    11     2     3   ar
    12     3     4   ar
    13     4     7    1
    14     7     9    1
    15     9    10    1
    16    10    11   ar
    17    11    12   ar
    18    12    13   ar
    19    13    14   ar
    20    14    16    1
    21    16    17    1
    22    17    18    1
    23    18    19    1
    24    19    20    1
    25    20    21    1
    26    14    15   ar
    27     4     5   ar
    28     5     6   ar
    29    30    31    2
    30    31    32    1
    31    32    24    1
    32    31    27    1
    33     6     1   ar
    34    15    10   ar
    35    21    16    1
    36     7     8    1
@<TRIPOS>MOLECULE
*****
 32 36 0 0 0
SMALL
GASTEIGER

@<TRIPOS>ATOM
      1 C          63.6767   87.8280   15.7453 C.ar    1  UNL1        0.0207
      2 C          64.5304   87.1466   14.7172 C.ar    1  UNL1        0.0994
      3 N          64.5056   85.6520   14.5928 N.ar    1  UNL1       -0.2126
      4 C          63.6271   84.8387   15.4965 C.ar    1  UNL1        0.2172
      5 N          62.7734   85.5200   16.5246 N.ar    1  UNL1       -0.2126
      6 C          62.7982   87.0147   16.6490 C.ar    1  UNL1        0.0994
      7 N          63.6023   83.3440   15.3721 N.pl3   1  UNL1       -0.2978
      8 H          64.0810   82.7875   16.0281 H       1  UNL1        0.1500
      9 C          62.8482   82.6974   14.2482 C.3     1  UNL1        0.1360
     10 C          63.0962   83.1283   12.8330 C.ar    1  UNL1        0.0802
     11 C          64.0325   82.3432   11.9630 C.ar    1  UNL1        0.0165
     12 C          64.2805   82.7741   10.5478 C.ar    1  UNL1        0.0041
     13 C          63.5921   83.9902   10.0025 C.ar    1  UNL1        0.0343
     14 C          62.6558   84.7754   10.8725 C.ar    1  UNL1        0.1315
     15 N          62.4079   84.3444   12.2877 N.ar    1  UNL1       -0.2333
     16 N          61.9675   85.9915   10.3273 N.pl3   1  UNL1       -0.2881
     17 C          61.1098   85.8816    9.1015 C.3     1  UNL1        0.1242
     18 C          60.4215   87.0976    8.5563 C.3     1  UNL1        0.1636
     19 O          60.5908   88.4236    9.2367 O.3     1  UNL1       -0.3501
     20 C          61.4485   88.5336   10.4624 C.3     1  UNL1        0.1636
     21 C          62.1368   87.3175   11.0077 C.3     1  UNL1        0.1242
     22 C          63.7015   89.3226   15.8697 C.3     1  UNL1        0.0596
     23 C          67.9209   93.4430   15.7696 C.3     1  UNL1        0.0307
     24 C          66.8399   92.9113   14.8759 C.2     1  UNL1        0.0074
     25 C          66.6402   93.4976   13.5097 C.2     1  UNL1        0.2278
     26 N          65.5592   92.9659   12.6160 N.2     1  UNL1       -0.0314
     27 C          64.6779   91.8479   13.0885 C.2     1  UNL1        0.3716
     28 N          63.5387   91.1232   12.4350 N.2     1  UNL1       -0.0311
     29 C          63.0342   90.0890   13.3973 C.2     1  UNL1        0.2319
     30 C          63.8617   90.1745   14.6455 C.2     1  UNL1        0.0328
     31 C          64.8775   91.2616   14.4546 C.2     1  UNL1        0.0704
     32 C          65.9585   91.7933   15.3483 C.3     1  UNL1        0.0598
@<TRIPOS>BOND
     1    23    24    1
     2    24    25    2
     3    25    26    1
     4    26    27    2
     5    27    28    1
     6    28    29    2
     7    29    30    1
     8    30    22    1
     9    22     1    1
    10     1     2   ar
    11     2     3   ar
    12     3     4   ar
    13     4     7    1
    14     7     9    1
    15     9    10    1
    16    10    11   ar
    17    11    12   ar
    18    12    13   ar
    19    13    14   ar
    20    14    16    1
    21    16    17    1
    22    17    18    1
    23    18    19    1
    24    19    20    1
    25    20    21    1
    26    14    15   ar
    27     4     5   ar
    28     5     6   ar
    29    30    31    2
    30    31    32    1
    31    32    24    1
    32    31    27    1
    33     6     1   ar
    34    15    10   ar
    35    21    16    1
    36     7     8    1
@<TRIPOS>MOLECULE
*****
 32 36 0 0 0
SMALL
GASTEIGER

@<TRIPOS>ATOM
      1 C          63.8703   91.6968   10.9943 C.ar    1  UNL1        0.0207
      2 C          62.9958   91.2994    9.8422 C.ar    1  UNL1        0.0994
      3 N          61.9604   90.2290   10.0209 N.ar    1  UNL1       -0.2126
      4 C          61.7993   89.5559   11.3517 C.ar    1  UNL1        0.2172
      5 N          62.6739   89.9533   12.5038 N.ar    1  UNL1       -0.2126
      6 C          63.7093   91.0238   12.3252 C.ar    1  UNL1        0.0994
      7 N          60.7639   88.4854   11.5303 N.pl3   1  UNL1       -0.2978
      8 H          60.2401   88.4412   12.3627 H       1  UNL1        0.1500
      9 C          60.5266   87.4822   10.4407 C.3     1  UNL1        0.1360
     10 C          61.4954   86.3559   10.2342 C.ar    1  UNL1        0.0802
     11 C          62.1634   86.1756    8.9034 C.ar    1  UNL1        0.0165
     12 C          63.1323   85.0492    8.6970 C.ar    1  UNL1        0.0041
     13 C          63.4331   84.1031    9.8214 C.ar    1  UNL1        0.0343
     14 C          62.7650   84.2834   11.1523 C.ar    1  UNL1        0.1315
     15 N          61.7962   85.4097   11.3587 N.ar    1  UNL1       -0.2333
     16 N          63.0658   83.3372   12.2767 N.pl3   1  UNL1       -0.2881
     17 C          63.0214   81.8561   12.0430 C.3     1  UNL1        0.1242
     18 C          63.3222   80.9101   13.1674 C.3     1  UNL1        0.1636
     19 O          63.6675   81.4449   14.5256 O.3     1  UNL1       -0.3501
     20 C          63.7119   82.9259   14.7593 C.3     1  UNL1        0.1636
     21 C          63.4111   83.8721   13.6349 C.3     1  UNL1        0.1242
     22 C          64.9057   92.7673   10.8156 C.3     1  UNL1        0.0596
     23 C          66.6487   92.6877   16.4501 C.3     1  UNL1        0.0307
     24 C          67.2356   92.4940   15.0834 C.2     1  UNL1        0.0074
     25 C          68.6940   92.1784   14.9313 C.2     1  UNL1        0.2278
     26 N          69.2809   91.9846   13.5645 N.2     1  UNL1       -0.0314
     27 C          68.4093   92.1064   12.3499 C.2     1  UNL1        0.3716
     28 N          68.7036   91.9694   10.8854 N.2     1  UNL1       -0.0311
     29 C          67.4270   92.2003   10.1324 C.2     1  UNL1        0.2319
     30 C          66.3437   92.4800   11.1315 C.2     1  UNL1        0.0328
     31 C          66.9508   92.4220   12.5020 C.2     1  UNL1        0.0704
     32 C          66.3639   92.6158   13.8687 C.3     1  UNL1        0.0598
@<TRIPOS>BOND
     1    23    24    1
     2    24    25    2
     3    25    26    1
     4    26    27    2
     5    27    28    1
     6    28    29    2
     7    29    30    1
     8    30    22    1
     9    22     1    1
    10     1     2   ar
    11     2     3   ar
    12     3     4   ar
    13     4     7    1
    14     7     9    1
    15     9    10    1
    16    10    11   ar
    17    11    12   ar
    18    12    13   ar
    19    13    14   ar
    20    14    16    1
    21    16    17    1
    22    17    18    1
    23    18    19    1
    24    19    20    1
    25    20    21    1
    26    14    15   ar
    27     4     5   ar
    28     5     6   ar
    29    30    31    2
    30    31    32    1
    31    32    24    1
    32    31    27    1
    33     6     1   ar
    34    15    10   ar
    35    21    16    1
    36     7     8    1
@<TRIPOS>MOLECULE
*****
 32 36 0 0 0
SMALL
GASTEIGER

@<TRIPOS>ATOM
      1 C          63.2912   84.3483   14.6603 C.ar    1  UNL1        0.0207
      2 C          64.2565   85.4589   14.3691 C.ar    1  UNL1        0.0994
      3 N          64.2069   86.7253   15.1714 N.ar    1  UNL1       -0.2126
      4 C          63.1921   86.8812   16.2650 C.ar    1  UNL1        0.2172
      5 N          62.2268   85.7705   16.5561 N.ar    1  UNL1       -0.2126
      6 C          62.2763   84.5041   15.7538 C.ar    1  UNL1        0.0994
      7 N          63.1426   88.1476   17.0673 N.pl3   1  UNL1       -0.2978
      8 H          63.4428   88.1484   18.0049 H       1  UNL1        0.1500
      9 C          62.6355   89.4128   16.4411 C.3     1  UNL1        0.1360
     10 C          63.3711   90.0251   15.2861 C.ar    1  UNL1        0.0802
     11 C          62.7872   89.9607   13.9060 C.ar    1  UNL1        0.0165
     12 C          63.5228   90.5730   12.7510 C.ar    1  UNL1        0.0041
     13 C          64.8424   91.2497   12.9762 C.ar    1  UNL1        0.0343
     14 C          65.4264   91.3140   14.3564 C.ar    1  UNL1        0.1315
     15 N          64.6908   90.7018   15.5113 N.ar    1  UNL1       -0.2333
     16 N          66.7460   91.9907   14.5816 N.pl3   1  UNL1       -0.2881
     17 C          66.9174   92.9360   15.7337 C.3     1  UNL1        0.1242
     18 C          68.2369   93.6126   15.9588 C.3     1  UNL1        0.1636
     19 O          69.3853   93.3441   15.0319 O.3     1  UNL1       -0.3501
     20 C          69.2140   92.3989   13.8798 C.3     1  UNL1        0.1636
     21 C          67.8944   91.7222   13.6546 C.3     1  UNL1        0.1242
     22 C          63.3408   83.0819   13.8579 C.3     1  UNL1        0.0596
     23 C          60.8185   87.2446   10.5259 C.3     1  UNL1        0.0307
     24 C          61.7739   86.0987   10.3707 C.2     1  UNL1        0.0074
     25 C          62.3543   85.7832    9.0241 C.2     1  UNL1        0.2278
     26 N          63.3097   84.6373    8.8689 N.2     1  UNL1       -0.0314
     27 C          63.6847   83.8068   10.0603 C.2     1  UNL1        0.3716
     28 N          64.5945   82.6241   10.2132 N.2     1  UNL1       -0.0311
     29 C          64.5764   82.2086   11.6544 C.2     1  UNL1        0.2319
     30 C          63.6554   83.1345   12.3923 C.2     1  UNL1        0.0328
     31 C          63.1043   84.1223   11.4070 C.2     1  UNL1        0.0704
     32 C          62.1489   85.2682   11.5622 C.3     1  UNL1        0.0598
@<TRIPOS>BOND
     1    23    24    1
     2    24    25    2
     3    25    26    1
     4    26    27    2
     5    27    28    1
     6    28    29    2
     7    29    30    1
     8    30    22    1
     9    22     1    1
    10     1     2   ar
    11     2     3   ar
    12     3     4   ar
    13     4     7    1
    14     7     9    1
    15     9    10    1
    16    10    11   ar
    17    11    12   ar
    18    12    13   ar
    19    13    14   ar
    20    14    16    1
    21    16    17    1
    22    17    18    1
    23    18    19    1
    24    19    20    1
    25    20    21    1
    26    14    15   ar
    27     4     5   ar
    28     5     6   ar
    29    30    31    2
    30    31    32    1
    31    32    24    1
    32    31    27    1
    33     6     1   ar
    34    15    10   ar
    35    21    16    1
    36     7     8    1
@<TRIPOS>MOLECULE
*****
 32 36 0 0 0
SMALL
GASTEIGER

@<TRIPOS>ATOM
      1 C          62.6226   85.1745   10.0638 C.ar    1  UNL1        0.0207
      2 C          61.8567   85.5581   11.2951 C.ar    1  UNL1        0.0994
      3 N          61.1704   86.8899   11.3671 N.ar    1  UNL1       -0.2126
      4 C          61.2500   87.8383   10.2077 C.ar    1  UNL1        0.2172
      5 N          62.0161   87.4547    8.9763 N.ar    1  UNL1       -0.2126
      6 C          62.7024   86.1229    8.9044 C.ar    1  UNL1        0.0994
      7 N          60.5638   89.1701   10.2796 N.pl3   1  UNL1       -0.2978
      8 H          59.6073   89.2194   10.5078 H       1  UNL1        0.1500
      9 C          61.3347   90.4270   10.0038 C.3     1  UNL1        0.1360
     10 C          62.4940   90.8028   10.8784 C.ar    1  UNL1        0.0802
     11 C          62.5591   90.3058   12.2921 C.ar    1  UNL1        0.0165
     12 C          63.7184   90.6817   13.1666 C.ar    1  UNL1        0.0041
     13 C          64.8126   91.5546   12.6274 C.ar    1  UNL1        0.0343
     14 C          64.7474   92.0517   11.2136 C.ar    1  UNL1        0.1315
     15 N          63.5881   91.6758   10.3392 N.ar    1  UNL1       -0.2333
     16 N          65.8416   92.9246   10.6744 N.pl3   1  UNL1       -0.2881
     17 C          65.7062   94.4175   10.7300 C.3     1  UNL1        0.1242
     18 C          66.8003   95.2904   10.1908 C.3     1  UNL1        0.1636
     19 O          68.0299   94.6705    9.5960 O.3     1  UNL1       -0.3501
     20 C          68.1653   93.1777    9.5403 C.3     1  UNL1        0.1636
     21 C          67.0712   92.3048   10.0796 C.3     1  UNL1        0.1242
     22 C          63.3089   83.8427    9.9919 C.3     1  UNL1        0.0596
     23 C          64.6729   86.0953   15.2699 C.3     1  UNL1        0.0307
     24 C          64.2945   84.7739   14.6693 C.2     1  UNL1        0.0074
     25 C          64.1869   83.5574   15.5402 C.2     1  UNL1        0.2278
     26 N          63.8086   82.2360   14.9396 N.2     1  UNL1       -0.0314
     27 C          63.5379   82.1311   13.4680 C.2     1  UNL1        0.3716
     28 N          63.1482   80.9720   12.5993 N.2     1  UNL1       -0.0311
     29 C          63.0150   81.4721   11.1914 C.2     1  UNL1        0.2319
     30 C          63.3223   82.9402   11.1899 C.2     1  UNL1        0.0328
     31 C          63.6455   83.3475   12.5970 C.2     1  UNL1        0.0704
     32 C          64.0238   84.6689   13.1977 C.3     1  UNL1        0.0598
@<TRIPOS>BOND
     1    23    24    1
     2    24    25    2
     3    25    26    1
     4    26    27    2
     5    27    28    1
     6    28    29    2
     7    29    30    1
     8    30    22    1
     9    22     1    1
    10     1     2   ar
    11     2     3   ar
    12     3     4   ar
    13     4     7    1
    14     7     9    1
    15     9    10    1
    16    10    11   ar
    17    11    12   ar
    18    12    13   ar
    19    13    14   ar
    20    14    16    1
    21    16    17    1
    22    17    18    1
    23    18    19    1
    24    19    20    1
    25    20    21    1
    26    14    15   ar
    27     4     5   ar
    28     5     6   ar
    29    30    31    2
    30    31    32    1
    31    32    24    1
    32    31    27    1
    33     6     1   ar
    34    15    10   ar
    35    21    16    1
    36     7     8    1
@<TRIPOS>MOLECULE
*****
 32 36 0 0 0
SMALL
GASTEIGER

@<TRIPOS>ATOM
      1 C          62.0588   87.0259   10.8630 C.ar    1  UNL1        0.0207
      2 C          63.1014   87.1373   11.9357 C.ar    1  UNL1        0.0994
      3 N          63.2982   88.4370   12.6583 N.ar    1  UNL1       -0.2126
      4 C          62.4524   89.6253   12.3082 C.ar    1  UNL1        0.2172
      5 N          61.4098   89.5138   11.2355 N.ar    1  UNL1       -0.2126
      6 C          61.2130   88.2142   10.5129 C.ar    1  UNL1        0.0994
      7 N          62.6492   90.9250   13.0308 N.pl3   1  UNL1       -0.2978
      8 H          62.1340   91.7200   12.7630 H       1  UNL1        0.1500
      9 C          63.6311   91.0133   14.1613 C.3     1  UNL1        0.1360
     10 C          65.0500   91.4188   13.8924 C.ar    1  UNL1        0.0802
     11 C          66.0842   91.2898   14.9711 C.ar    1  UNL1        0.0165
     12 C          67.5031   91.6954   14.7022 C.ar    1  UNL1        0.0041
     13 C          67.8878   92.2299   13.3545 C.ar    1  UNL1        0.0343
     14 C          66.8534   92.3589   12.2757 C.ar    1  UNL1        0.1315
     15 N          65.4346   91.9534   12.5447 N.ar    1  UNL1       -0.2333
     16 N          67.2381   92.8935   10.9280 N.pl3   1  UNL1       -0.2881
     17 C          68.1873   92.1233   10.0586 C.3     1  UNL1        0.1242
     18 C          68.5720   92.6578    8.7110 C.3     1  UNL1        0.1636
     19 O          68.0075   93.9626    8.2326 O.3     1  UNL1       -0.3501
     20 C          67.0583   94.7329    9.1020 C.3     1  UNL1        0.1636
     21 C          66.6736   94.1983   10.4497 C.3     1  UNL1        0.1242
     22 C          61.8620   85.7262   10.1404 C.3     1  UNL1        0.0596
     23 C          62.3595   83.5836   15.6134 C.3     1  UNL1        0.0307
     24 C          62.9201   83.3293   14.2455 C.2     1  UNL1        0.0074
     25 C          63.9224   82.2330   14.0377 C.2     1  UNL1        0.2278
     26 N          64.4830   81.9787   12.6698 N.2     1  UNL1       -0.0314
     27 C          64.0412   82.8207   11.5097 C.2     1  UNL1        0.3716
     28 N          64.4161   82.8047   10.0575 N.2     1  UNL1       -0.0311
     29 C          63.6454   83.8912    9.3677 C.2     1  UNL1        0.2319
     30 C          62.7942   84.5787   10.3937 C.2     1  UNL1        0.0328
     31 C          63.0388   83.9171   11.7176 C.2     1  UNL1        0.0704
     32 C          62.4782   84.1713   13.0855 C.3     1  UNL1        0.0598
@<TRIPOS>BOND
     1    23    24    1
     2    24    25    2
     3    25    26    1
     4    26    27    2
     5    27    28    1
     6    28    29    2
     7    29    30    1
     8    30    22    1
     9    22     1    1
    10     1     2   ar
    11     2     3   ar
    12     3     4   ar
    13     4     7    1
    14     7     9    1
    15     9    10    1
    16    10    11   ar
    17    11    12   ar
    18    12    13   ar
    19    13    14   ar
    20    14    16    1
    21    16    17    1
    22    17    18    1
    23    18    19    1
    24    19    20    1
    25    20    21    1
    26    14    15   ar
    27     4     5   ar
    28     5     6   ar
    29    30    31    2
    30    31    32    1
    31    32    24    1
    32    31    27    1
    33     6     1   ar
    34    15    10   ar
    35    21    16    1
    36     7     8    1
@<TRIPOS>MOLECULE
*****
 32 36 0 0 0
SMALL
GASTEIGER

@<TRIPOS>ATOM
      1 C          62.9387   84.5393    9.4025 C.ar    1  UNL1        0.0207
      2 C          62.0521   85.2612   10.3735 C.ar    1  UNL1        0.0994
      3 N          61.0302   86.2383    9.8726 N.ar    1  UNL1       -0.2126
      4 C          60.8948   86.4935    8.4007 C.ar    1  UNL1        0.2172
      5 N          61.7814   85.7716    7.4297 N.ar    1  UNL1       -0.2126
      6 C          62.8033   84.7945    7.9306 C.ar    1  UNL1        0.0994
      7 N          59.8728   87.4706    7.8998 N.pl3   1  UNL1       -0.2978
      8 H          59.1242   87.1575    7.3423 H       1  UNL1        0.1500
      9 C          59.9914   88.9247    8.2484 C.3     1  UNL1        0.1360
     10 C          60.3476   89.3341    9.6468 C.ar    1  UNL1        0.0802
     11 C          59.3920   89.0692   10.7722 C.ar    1  UNL1        0.0165
     12 C          59.7482   89.4785   12.1706 C.ar    1  UNL1        0.0041
     13 C          61.0600   90.1528   12.4436 C.ar    1  UNL1        0.0343
     14 C          62.0156   90.4177   11.3181 C.ar    1  UNL1        0.1315
     15 N          61.6594   90.0084    9.9198 N.ar    1  UNL1       -0.2333
     16 N          63.3274   91.0920   11.5911 N.pl3   1  UNL1       -0.2881
     17 C          64.0508   91.8013   10.4848 C.3     1  UNL1        0.1242
     18 C          65.3625   92.4755   10.7579 C.3     1  UNL1        0.1636
     19 O          65.9510   92.4406   12.1371 O.3     1  UNL1       -0.3501
     20 C          65.2277   91.7314   13.2434 C.3     1  UNL1        0.1636
     21 C          63.9159   91.0571   12.9704 C.3     1  UNL1        0.1242
     22 C          63.9606   83.5622    9.9034 C.3     1  UNL1        0.0596
     23 C          64.5802   86.0905   15.1964 C.3     1  UNL1        0.0307
     24 C          64.1954   84.7612   14.6176 C.2     1  UNL1        0.0074
     25 C          63.8290   83.6254   15.5262 C.2     1  UNL1        0.2278
     26 N          63.4442   82.2961   14.9474 N.2     1  UNL1       -0.0314
     27 C          63.4258   82.1027   13.4600 C.2     1  UNL1        0.3716
     28 N          63.0912   80.9157   12.6062 N.2     1  UNL1       -0.0311
     29 C          63.2508   81.3179   11.1700 C.2     1  UNL1        0.2319
     30 C          63.6841   82.7536   11.1361 C.2     1  UNL1        0.0328
     31 C          63.7922   83.2386   12.5515 C.2     1  UNL1        0.0704
     32 C          64.1770   84.5678   13.1303 C.3     1  UNL1        0.0598
@<TRIPOS>BOND
     1    23    24    1
     2    24    25    2
     3    25    26    1
     4    26    27    2
     5    27    28    1
     6    28    29    2
     7    29    30    1
     8    30    22    1
     9    22     1    1
    10     1     2   ar
    11     2     3   ar
    12     3     4   ar
    13     4     7    1
    14     7     9    1
    15     9    10    1
    16    10    11   ar
    17    11    12   ar
    18    12    13   ar
    19    13    14   ar
    20    14    16    1
    21    16    17    1
    22    17    18    1
    23    18    19    1
    24    19    20    1
    25    20    21    1
    26    14    15   ar
    27     4     5   ar
    28     5     6   ar
    29    30    31    2
    30    31    32    1
    31    32    24    1
    32    31    27    1
    33     6     1   ar
    34    15    10   ar
    35    21    16    1
    36     7     8    1
@<TRIPOS>MOLECULE
*****
 32 36 0 0 0
SMALL
GASTEIGER

@<TRIPOS>ATOM
      1 C          60.5011   87.3735    9.3466 C.ar    1  UNL1        0.0207
      2 C          59.6299   86.6476    8.3648 C.ar    1  UNL1        0.0994
      3 N          58.9923   87.3955    7.2316 N.ar    1  UNL1       -0.2126
      4 C          59.2259   88.8695    7.0802 C.ar    1  UNL1        0.2172
      5 N          60.0971   89.5954    8.0621 N.ar    1  UNL1       -0.2126
      6 C          60.7347   88.8475    9.1953 C.ar    1  UNL1        0.0994
      7 N          58.5883   89.6174    5.9470 N.pl3   1  UNL1       -0.2978
      8 H          57.9986   89.1453    5.3157 H       1  UNL1        0.1500
      9 C          58.8492   91.0846    5.7759 C.3     1  UNL1        0.1360
     10 C          59.7957   91.5591    4.7134 C.ar    1  UNL1        0.0802
     11 C          61.1942   91.0193    4.6593 C.ar    1  UNL1        0.0165
     12 C          62.1407   91.4938    3.5968 C.ar    1  UNL1        0.0041
     13 C          61.6888   92.5081    2.5884 C.ar    1  UNL1        0.0343
     14 C          60.2903   93.0479    2.6425 C.ar    1  UNL1        0.1315
     15 N          59.3438   92.5734    3.7050 N.ar    1  UNL1       -0.2333
     16 N          59.8384   94.0622    1.6340 N.pl3   1  UNL1       -0.2881
     17 C          60.2054   95.5064    1.8065 C.3     1  UNL1        0.1242
     18 C          59.7535   96.5207    0.7981 C.3     1  UNL1        0.1636
     19 O          58.9346   96.0908   -0.3829 O.3     1  UNL1       -0.3501
     20 C          58.5676   94.6467   -0.5553 C.3     1  UNL1        0.1636
     21 C          59.0195   93.6324    0.4531 C.3     1  UNL1        0.1242
     22 C          61.1387   86.6256   10.4797 C.3     1  UNL1        0.0596
     23 C          63.0294   83.2009   14.8943 C.3     1  UNL1        0.0307
     24 C          63.2676   83.3834   13.4246 C.2     1  UNL1        0.0074
     25 C          64.2556   82.5093   12.7107 C.2     1  UNL1        0.2278
     26 N          64.4938   82.6918   11.2410 N.2     1  UNL1       -0.0314
     27 C          63.7440   83.7485   10.4853 C.2     1  UNL1        0.3716
     28 N          63.7684   84.1588    9.0427 N.2     1  UNL1       -0.0311
     29 C          62.7954   85.2866    8.8650 C.2     1  UNL1        0.2319
     30 C          62.1696   85.5732   10.1978 C.2     1  UNL1        0.0328
     31 C          62.7560   84.6226   11.1992 C.2     1  UNL1        0.0704
     32 C          62.5178   84.4400   12.6688 C.3     1  UNL1        0.0598
@<TRIPOS>BOND
     1    23    24    1
     2    24    25    2
     3    25    26    1
     4    26    27    2
     5    27    28    1
     6    28    29    2
     7    29    30    1
     8    30    22    1
     9    22     1    1
    10     1     2   ar
    11     2     3   ar
    12     3     4   ar
    13     4     7    1
    14     7     9    1
    15     9    10    1
    16    10    11   ar
    17    11    12   ar
    18    12    13   ar
    19    13    14   ar
    20    14    16    1
    21    16    17    1
    22    17    18    1
    23    18    19    1
    24    19    20    1
    25    20    21    1
    26    14    15   ar
    27     4     5   ar
    28     5     6   ar
    29    30    31    2
    30    31    32    1
    31    32    24    1
    32    31    27    1
    33     6     1   ar
    34    15    10   ar
    35    21    16    1
    36     7     8    1
