@<TRIPOS>MOLECULE
*****
 40 44 0 0 0
SMALL
GASTEIGER

@<TRIPOS>ATOM
      1 C          61.5662   86.3699    9.3198 C.ar    1  UNL1        0.0611
      2 C          60.2282   86.1159    8.6912 C.ar    1  UNL1        0.1037
      3 N          59.3694   87.3232    8.9254 N.ar    1  UNL1       -0.2269
      4 C          60.1766   88.3233    9.6988 C.ar    1  UNL1        0.1407
      5 N          59.8507   89.6943   10.2126 N.ar    1  UNL1       -0.3374
      6 C          60.8826   90.4762   10.9701 C.ar    1  UNL1        0.0735
      7 C          62.2403   89.8870   11.2139 C.ar    1  UNL1        0.0202
      8 C          62.5662   88.5160   10.7001 C.ar    1  UNL1        0.0047
      9 C          61.5343   87.7341    9.9426 C.ar    1  UNL1        0.0386
     10 H          58.9596   90.0810   10.0527 H       1  UNL1        0.1674
     11 C          63.2722   90.6690   11.9714 C.ar    1  UNL1        0.0411
     12 C          63.5231   90.5981   13.4486 C.ar    1  UNL1        0.1217
     13 N          64.6403   91.5443   13.7750 N.ar    1  UNL1       -0.1673
     14 N          65.0799   92.2000   12.4994 N.ar    1  UNL1       -0.2449
     15 C          64.2343   91.6590   11.3848 C.ar    1  UNL1        0.0970
     16 C          66.1730   93.2180   12.3626 C.3     1  UNL1        0.1538
     17 C          66.8547   93.4135   11.0408 C.ar    1  UNL1        0.0021
     18 C          67.7083   92.3209   10.4684 C.ar    1  UNL1       -0.0023
     19 C          68.3900   92.5163    9.1467 C.ar    1  UNL1       -0.0003
     20 C          68.2181   93.8043    8.3973 C.ar    1  UNL1       -0.0000
     21 C          67.3644   94.8969    8.9697 C.ar    1  UNL1       -0.0003
     22 C          66.6828   94.7015   10.2914 C.ar    1  UNL1       -0.0023
     23 C          62.7315   85.4255    9.3248 C.2     1  UNL1        0.2015
     24 O          63.5964   85.2949    8.1063 O.2     1  UNL1       -0.2864
     25 C          62.6797   84.1388   13.0788 C.ar    1  UNL1        0.0920
     26 C          63.6330   82.9837   12.9957 C.ar    1  UNL1        0.0204
     27 C          64.2858   82.6425   11.6890 C.ar    1  UNL1        0.0312
     28 C          63.9854   83.4564   10.4654 C.ar    1  UNL1        0.1454
     29 F          64.6382   83.1152    9.1587 F       1  UNL1       -0.2040
     30 C          63.0321   84.6115   10.5485 C.ar    1  UNL1        0.0951
     31 C          62.3792   84.9527   11.8551 C.ar    1  UNL1        0.1598
     32 F          61.4259   86.1078   11.9381 F       1  UNL1       -0.2026
     33 N          62.0268   84.4800   14.3854 N.pl3   1  UNL1       -0.2166
     34 H          61.0818   84.2502   14.5384 H       1  UNL1        0.1734
     35 S          62.8138   85.1713   15.4590 S.O2    1  UNL1        0.0540
     36 O          63.4894   86.0161   14.4198 O.2     1  UNL1       -0.1545
     37 O          62.1383   84.3266   16.4982 O.2     1  UNL1       -0.1545
     38 C          63.6008   85.8626   16.5327 C.3     1  UNL1        0.1724
     39 C          63.0406   88.3302   17.1223 C.3     1  UNL1        0.0019
     40 C          62.9316   86.8652   17.4255 C.3     1  UNL1        0.0273
@<TRIPOS>BOND
     1    39    40    1
     2    40    38    1
     3    38    35    1
     4    35    36    2
     5    35    37    2
     6    35    33    1
     7    33    25    1
     8    25    26   ar
     9    26    27   ar
    10    27    28   ar
    11    28    29    1
    12    28    30   ar
    13    30    23    1
    14    23    24    2
    15    23     1    1
    16     1     2   ar
    17     2     3   ar
    18     3     4   ar
    19     4     5   ar
    20     5     6   ar
    21     6     7   ar
    22     7    11    1
    23    11    12   ar
    24    12    13   ar
    25    13    14   ar
    26    14    16    1
    27    16    17    1
    28    17    18   ar
    29    18    19   ar
    30    19    20   ar
    31    20    21   ar
    32    21    22   ar
    33    14    15   ar
    34     7     8   ar
    35     8     9   ar
    36    30    31   ar
    37    31    32    1
    38    31    25   ar
    39     9     1   ar
    40     9     4    1
    41    15    11   ar
    42    22    17   ar
    43    33    34    1
    44     5    10    1
@<TRIPOS>MOLECULE
*****
 40 44 0 0 0
SMALL
GASTEIGER

@<TRIPOS>ATOM
      1 C          63.9383   86.2592   15.6390 C.ar    1  UNL1        0.0611
      2 C          63.1536   85.8110   16.8362 C.ar    1  UNL1        0.1037
      3 N          62.6545   87.0337   17.5475 N.ar    1  UNL1       -0.2269
      4 C          63.1308   88.2375   16.7900 C.ar    1  UNL1        0.1407
      5 N          62.9446   89.7077   17.0219 N.ar    1  UNL1       -0.3374
      6 C          63.5518   90.6993   16.0743 C.ar    1  UNL1        0.0735
      7 C          64.3452   90.2206   14.8947 C.ar    1  UNL1        0.0202
      8 C          64.5315   88.7505   14.6628 C.ar    1  UNL1        0.0047
      9 C          63.9243   87.7589   15.6105 C.ar    1  UNL1        0.0386
     10 H          62.4238   90.0219   17.7961 H       1  UNL1        0.1674
     11 C          64.9525   91.2123   13.9471 C.ar    1  UNL1        0.0411
     12 C          66.0402   92.1922   14.2738 C.ar    1  UNL1        0.1217
     13 N          66.3386   92.9836   13.0350 N.ar    1  UNL1       -0.1673
     14 N          65.4352   92.4929   11.9427 N.ar    1  UNL1       -0.2449
     15 C          64.5786   91.3982   12.5064 C.ar    1  UNL1        0.0970
     16 C          65.3955   93.0067   10.5340 C.3     1  UNL1        0.1538
     17 C          66.0892   94.2897   10.1837 C.ar    1  UNL1        0.0021
     18 C          65.8135   95.5322   10.9775 C.ar    1  UNL1       -0.0023
     19 C          66.5072   96.8152   10.6272 C.ar    1  UNL1       -0.0003
     20 C          67.4767   96.8556    9.4833 C.ar    1  UNL1       -0.0000
     21 C          67.7524   95.6130    8.6896 C.ar    1  UNL1       -0.0003
     22 C          67.0587   94.3301    9.0398 C.ar    1  UNL1       -0.0023
     23 C          64.6179   85.3648   14.6449 C.2     1  UNL1        0.2015
     24 O          66.0992   85.1434   14.7250 O.2     1  UNL1       -0.2864
     25 C          62.4428   84.8271   11.3692 C.ar    1  UNL1        0.0920
     26 C          62.2122   83.3459   11.4220 C.ar    1  UNL1        0.0204
     27 C          62.7836   82.5376   12.5491 C.ar    1  UNL1        0.0312
     28 C          63.5854   83.2106   13.6234 C.ar    1  UNL1        0.1454
     29 F          64.1567   82.4023   14.7505 F       1  UNL1       -0.2040
     30 C          63.8160   84.6918   13.5706 C.ar    1  UNL1        0.0951
     31 C          63.2447   85.5000   12.4435 C.ar    1  UNL1        0.1598
     32 F          63.4753   86.9813   12.3907 F       1  UNL1       -0.2026
     33 N          61.8715   85.6353   10.2421 N.pl3   1  UNL1       -0.2166
     34 H          61.6590   85.2020    9.3840 H       1  UNL1        0.1734
     35 S          61.6239   87.1037   10.4224 S.O2    1  UNL1        0.0540
     36 O          60.6273   86.8030   11.5024 O.2     1  UNL1       -0.1545
     37 O          62.6205   87.4044    9.3425 O.2     1  UNL1       -0.1545
     38 C          61.3764   88.5721   10.6027 C.3     1  UNL1        0.1724
     39 C          59.6835   90.4249   11.2749 C.3     1  UNL1        0.0019
     40 C          59.9716   89.0969   10.6397 C.3     1  UNL1        0.0273
@<TRIPOS>BOND
     1    39    40    1
     2    40    38    1
     3    38    35    1
     4    35    36    2
     5    35    37    2
     6    35    33    1
     7    33    25    1
     8    25    26   ar
     9    26    27   ar
    10    27    28   ar
    11    28    29    1
    12    28    30   ar
    13    30    23    1
    14    23    24    2
    15    23     1    1
    16     1     2   ar
    17     2     3   ar
    18     3     4   ar
    19     4     5   ar
    20     5     6   ar
    21     6     7   ar
    22     7    11    1
    23    11    12   ar
    24    12    13   ar
    25    13    14   ar
    26    14    16    1
    27    16    17    1
    28    17    18   ar
    29    18    19   ar
    30    19    20   ar
    31    20    21   ar
    32    21    22   ar
    33    14    15   ar
    34     7     8   ar
    35     8     9   ar
    36    30    31   ar
    37    31    32    1
    38    31    25   ar
    39     9     1   ar
    40     9     4    1
    41    15    11   ar
    42    22    17   ar
    43    33    34    1
    44     5    10    1
@<TRIPOS>MOLECULE
*****
 40 44 0 0 0
SMALL
GASTEIGER

@<TRIPOS>ATOM
      1 C          63.9811   86.0883   15.5803 C.ar    1  UNL1        0.0611
      2 C          63.2923   85.5651   16.8058 C.ar    1  UNL1        0.1037
      3 N          62.8127   86.7402   17.6052 N.ar    1  UNL1       -0.2269
      4 C          63.2051   87.9897   16.8738 C.ar    1  UNL1        0.1407
      5 N          62.9982   89.4422   17.1857 N.ar    1  UNL1       -0.3374
      6 C          63.5134   90.4918   16.2461 C.ar    1  UNL1        0.0735
      7 C          64.2356   90.0888   14.9946 C.ar    1  UNL1        0.0202
      8 C          64.4425   88.6363   14.6828 C.ar    1  UNL1        0.0047
      9 C          63.9273   87.5867   15.6223 C.ar    1  UNL1        0.0386
     10 H          62.5243   89.7066   18.0071 H       1  UNL1        0.1674
     11 C          64.7508   91.1385   14.0550 C.ar    1  UNL1        0.0411
     12 C          65.7578   92.2000   14.3855 C.ar    1  UNL1        0.1217
     13 N          65.9789   93.0285   13.1548 N.ar    1  UNL1       -0.1673
     14 N          65.1085   92.4790   12.0636 N.ar    1  UNL1       -0.2449
     15 C          64.3495   91.3110   12.6200 C.ar    1  UNL1        0.0970
     16 C          65.0137   93.0053   10.6622 C.3     1  UNL1        0.1538
     17 C          65.8396   94.1866   10.2472 C.ar    1  UNL1        0.0021
     18 C          65.4162   95.5718   10.6371 C.ar    1  UNL1       -0.0023
     19 C          66.2421   96.7532   10.2221 C.ar    1  UNL1       -0.0003
     20 C          67.4914   96.5494    9.4172 C.ar    1  UNL1       -0.0000
     21 C          67.9148   95.1642    9.0273 C.ar    1  UNL1       -0.0003
     22 C          67.0889   93.9828    9.4423 C.ar    1  UNL1       -0.0023
     23 C          64.6129   85.2587   14.5021 C.2     1  UNL1        0.2015
     24 O          66.0615   84.8814   14.5977 O.2     1  UNL1       -0.2864
     25 C          62.4013   85.3648   11.2084 C.ar    1  UNL1        0.0920
     26 C          62.1624   83.9016   10.9802 C.ar    1  UNL1        0.0204
     27 C          62.7402   82.8908   11.9259 C.ar    1  UNL1        0.0312
     28 C          63.5571   83.3431   13.0999 C.ar    1  UNL1        0.1454
     29 F          64.1350   82.3323   14.0455 F       1  UNL1       -0.2040
     30 C          63.7960   84.8063   13.3281 C.ar    1  UNL1        0.0951
     31 C          63.2182   85.8170   12.3824 C.ar    1  UNL1        0.1598
     32 F          63.4572   87.2802   12.6107 F       1  UNL1       -0.2026
     33 N          61.8234   86.3755   10.2628 N.pl3   1  UNL1       -0.2166
     34 H          61.6333   87.2896   10.5751 H       1  UNL1        0.1734
     35 S          61.5352   85.9936    8.8411 S.O2    1  UNL1        0.0540
     36 O          62.9874   85.6825    8.6303 O.2     1  UNL1       -0.1545
     37 O          60.0831   86.3048    9.0519 O.2     1  UNL1       -0.1545
     38 C          61.2470   85.6118    7.4195 C.3     1  UNL1        0.1724
     39 C          61.8122   84.1015    5.3823 C.3     1  UNL1        0.0019
     40 C          62.2327   84.7824    6.6510 C.3     1  UNL1        0.0273
@<TRIPOS>BOND
     1    39    40    1
     2    40    38    1
     3    38    35    1
     4    35    36    2
     5    35    37    2
     6    35    33    1
     7    33    25    1
     8    25    26   ar
     9    26    27   ar
    10    27    28   ar
    11    28    29    1
    12    28    30   ar
    13    30    23    1
    14    23    24    2
    15    23     1    1
    16     1     2   ar
    17     2     3   ar
    18     3     4   ar
    19     4     5   ar
    20     5     6   ar
    21     6     7   ar
    22     7    11    1
    23    11    12   ar
    24    12    13   ar
    25    13    14   ar
    26    14    16    1
    27    16    17    1
    28    17    18   ar
    29    18    19   ar
    30    19    20   ar
    31    20    21   ar
    32    21    22   ar
    33    14    15   ar
    34     7     8   ar
    35     8     9   ar
    36    30    31   ar
    37    31    32    1
    38    31    25   ar
    39     9     1   ar
    40     9     4    1
    41    15    11   ar
    42    22    17   ar
    43    33    34    1
    44     5    10    1
@<TRIPOS>MOLECULE
*****
 40 44 0 0 0
SMALL
GASTEIGER

@<TRIPOS>ATOM
      1 C          61.5375   86.2149    8.9956 C.ar    1  UNL1        0.0611
      2 C          60.2221   85.9708    8.3172 C.ar    1  UNL1        0.1037
      3 N          59.3656   87.1861    8.5158 N.ar    1  UNL1       -0.2269
      4 C          60.1516   88.1813    9.3170 C.ar    1  UNL1        0.1407
      5 N          59.8185   89.5564    9.8148 N.ar    1  UNL1       -0.3374
      6 C          60.8277   90.3314   10.6091 C.ar    1  UNL1        0.0735
      7 C          62.1700   89.7311   10.9056 C.ar    1  UNL1        0.0202
      8 C          62.5031   88.3560   10.4078 C.ar    1  UNL1        0.0047
      9 C          61.4940   87.5810    9.6135 C.ar    1  UNL1        0.0386
     10 H          58.9375   89.9504    9.6202 H       1  UNL1        0.1674
     11 C          63.1792   90.5062   11.7000 C.ar    1  UNL1        0.0411
     12 C          64.0348   91.6258   11.1856 C.ar    1  UNL1        0.1217
     13 N          64.8943   92.1092   12.3158 N.ar    1  UNL1       -0.1673
     14 N          64.5700   91.2884   13.5287 N.ar    1  UNL1       -0.2449
     15 C          63.5100   90.2977   13.1481 C.ar    1  UNL1        0.0970
     16 C          65.1958   91.4329   14.8843 C.3     1  UNL1        0.1538
     17 C          66.5881   91.9759   15.0136 C.ar    1  UNL1        0.0021
     18 C          67.6343   91.6053   14.0046 C.ar    1  UNL1       -0.0023
     19 C          69.0266   92.1483   14.1339 C.ar    1  UNL1       -0.0003
     20 C          69.3726   93.0619   15.2721 C.ar    1  UNL1       -0.0000
     21 C          68.3263   93.4326   16.2810 C.ar    1  UNL1       -0.0003
     22 C          66.9341   92.8896   16.1518 C.ar    1  UNL1       -0.0023
     23 C          62.6935   85.2604    9.0470 C.2     1  UNL1        0.2015
     24 O          63.5256   85.0234    7.8218 O.2     1  UNL1       -0.2864
     25 C          62.6737   84.2336   12.8805 C.ar    1  UNL1        0.0920
     26 C          63.6654   83.1081   12.8776 C.ar    1  UNL1        0.0204
     27 C          64.3331   82.7001   11.5979 C.ar    1  UNL1        0.0312
     28 C          64.0092   83.4175   10.3210 C.ar    1  UNL1        0.1454
     29 F          64.6769   83.0095    9.0413 F       1  UNL1       -0.2040
     30 C          63.0175   84.5430   10.3239 C.ar    1  UNL1        0.0951
     31 C          62.3498   84.9509   11.6037 C.ar    1  UNL1        0.1598
     32 F          61.3581   86.0764   11.6065 F       1  UNL1       -0.2026
     33 N          62.0060   84.6415   14.1602 N.pl3   1  UNL1       -0.2166
     34 H          61.0295   84.5585   14.2542 H       1  UNL1        0.1734
     35 S          62.8261   85.1761   15.2968 S.O2    1  UNL1        0.0540
     36 O          63.4468   86.1836   14.3750 O.2     1  UNL1       -0.1545
     37 O          62.2054   84.1686   16.2185 O.2     1  UNL1       -0.1545
     38 C          63.6461   85.7105   16.4333 C.3     1  UNL1        0.1724
     39 C          63.0003   88.1032   17.2135 C.3     1  UNL1        0.0019
     40 C          63.0194   86.6216   17.4469 C.3     1  UNL1        0.0273
@<TRIPOS>BOND
     1    39    40    1
     2    40    38    1
     3    38    35    1
     4    35    36    2
     5    35    37    2
     6    35    33    1
     7    33    25    1
     8    25    26   ar
     9    26    27   ar
    10    27    28   ar
    11    28    29    1
    12    28    30   ar
    13    30    23    1
    14    23    24    2
    15    23     1    1
    16     1     2   ar
    17     2     3   ar
    18     3     4   ar
    19     4     5   ar
    20     5     6   ar
    21     6     7   ar
    22     7    11    1
    23    11    12   ar
    24    12    13   ar
    25    13    14   ar
    26    14    16    1
    27    16    17    1
    28    17    18   ar
    29    18    19   ar
    30    19    20   ar
    31    20    21   ar
    32    21    22   ar
    33    14    15   ar
    34     7     8   ar
    35     8     9   ar
    36    30    31   ar
    37    31    32    1
    38    31    25   ar
    39     9     1   ar
    40     9     4    1
    41    15    11   ar
    42    22    17   ar
    43    33    34    1
    44     5    10    1
@<TRIPOS>MOLECULE
*****
 40 44 0 0 0
SMALL
GASTEIGER

@<TRIPOS>ATOM
      1 C          63.4705   84.2349   14.1227 C.ar    1  UNL1        0.0611
      2 C          63.0471   83.4179   15.3073 C.ar    1  UNL1        0.1037
      3 N          62.8322   84.3517   16.4614 N.ar    1  UNL1       -0.2269
      4 C          63.1227   85.7458   15.9900 C.ar    1  UNL1        0.1407
      5 N          63.0790   87.0716   16.6903 N.ar    1  UNL1       -0.3374
      6 C          63.4298   88.3252   15.9451 C.ar    1  UNL1        0.0735
      7 C          63.8243   88.2530   14.4997 C.ar    1  UNL1        0.0202
      8 C          63.8680   86.9272   13.7995 C.ar    1  UNL1        0.0047
      9 C          63.5172   85.6736   14.5446 C.ar    1  UNL1        0.0386
     10 H          62.8201   87.1189   17.6389 H       1  UNL1        0.1674
     11 C          64.1751   89.5067   13.7545 C.ar    1  UNL1        0.0411
     12 C          63.4807   90.0291   12.5318 C.ar    1  UNL1        0.1217
     13 N          64.1582   91.3034   12.1227 N.ar    1  UNL1       -0.1673
     14 N          65.2714   91.5684   13.0927 N.ar    1  UNL1       -0.2449
     15 C          65.2817   90.4581   14.1011 C.ar    1  UNL1        0.0970
     16 C          66.2094   92.7385   13.0599 C.3     1  UNL1        0.1538
     17 C          66.6870   93.2803   11.7453 C.ar    1  UNL1        0.0021
     18 C          67.5455   92.4340   10.8527 C.ar    1  UNL1       -0.0023
     19 C          68.0231   92.9758    9.5380 C.ar    1  UNL1       -0.0003
     20 C          67.6422   94.3639    9.1160 C.ar    1  UNL1       -0.0000
     21 C          66.7837   95.2102   10.0086 C.ar    1  UNL1       -0.0003
     22 C          66.3061   94.6684   11.3232 C.ar    1  UNL1       -0.0023
     23 C          63.7908   83.7061   12.7561 C.2     1  UNL1        0.2015
     24 O          64.6657   82.4971   12.6058 O.2     1  UNL1       -0.2864
     25 C          61.5118   85.9967   10.4519 C.ar    1  UNL1        0.0920
     26 C          62.1270   85.7470    9.1068 C.ar    1  UNL1        0.0204
     27 C          63.2969   84.8170    8.9782 C.ar    1  UNL1        0.0312
     28 C          63.8515   84.1367   10.1946 C.ar    1  UNL1        0.1454
     29 F          65.0213   83.2067   10.0660 F       1  UNL1       -0.2040
     30 C          63.2362   84.3864   11.5396 C.ar    1  UNL1        0.0951
     31 C          62.0664   85.3164   11.6682 C.ar    1  UNL1        0.1598
     32 F          61.4512   85.5661   13.0133 F       1  UNL1       -0.2026
     33 N          60.3419   86.9267   10.5805 N.pl3   1  UNL1       -0.2166
     34 H          59.7122   86.8249   11.3304 H       1  UNL1        0.1734
     35 S          60.1315   88.0119    9.5665 S.O2    1  UNL1        0.0540
     36 O          61.1342   88.8712   10.2781 O.2     1  UNL1       -0.1545
     37 O          59.1289   87.1526    8.8550 O.2     1  UNL1       -0.1545
     38 C          59.9210   89.0970    8.5525 C.3     1  UNL1        0.1724
     39 C          59.3532   89.8003    6.1167 C.3     1  UNL1        0.0019
     40 C          59.3689   88.7616    7.1988 C.3     1  UNL1        0.0273
@<TRIPOS>BOND
     1    39    40    1
     2    40    38    1
     3    38    35    1
     4    35    36    2
     5    35    37    2
     6    35    33    1
     7    33    25    1
     8    25    26   ar
     9    26    27   ar
    10    27    28   ar
    11    28    29    1
    12    28    30   ar
    13    30    23    1
    14    23    24    2
    15    23     1    1
    16     1     2   ar
    17     2     3   ar
    18     3     4   ar
    19     4     5   ar
    20     5     6   ar
    21     6     7   ar
    22     7    11    1
    23    11    12   ar
    24    12    13   ar
    25    13    14   ar
    26    14    16    1
    27    16    17    1
    28    17    18   ar
    29    18    19   ar
    30    19    20   ar
    31    20    21   ar
    32    21    22   ar
    33    14    15   ar
    34     7     8   ar
    35     8     9   ar
    36    30    31   ar
    37    31    32    1
    38    31    25   ar
    39     9     1   ar
    40     9     4    1
    41    15    11   ar
    42    22    17   ar
    43    33    34    1
    44     5    10    1
@<TRIPOS>MOLECULE
*****
 40 44 0 0 0
SMALL
GASTEIGER

@<TRIPOS>ATOM
      1 C          60.2254   89.2567    9.3052 C.ar    1  UNL1        0.0611
      2 C          59.5549   89.5031    7.9862 C.ar    1  UNL1        0.1037
      3 N          59.7234   88.2735    7.1438 N.ar    1  UNL1       -0.2269
      4 C          60.4981   87.2672    7.9420 C.ar    1  UNL1        0.1407
      5 N          60.9611   85.8761    7.6251 N.ar    1  UNL1       -0.3374
      6 C          61.7343   85.0927    8.6441 C.ar    1  UNL1        0.0735
      7 C          62.0446   85.7003    9.9799 C.ar    1  UNL1        0.0202
      8 C          61.5816   87.0914   10.2969 C.ar    1  UNL1        0.0047
      9 C          60.8084   87.8749    9.2779 C.ar    1  UNL1        0.0386
     10 H          60.7575   85.4773    6.7484 H       1  UNL1        0.1674
     11 C          62.8178   84.9168   10.9989 C.ar    1  UNL1        0.0411
     12 C          63.6028   83.6653   10.7388 C.ar    1  UNL1        0.1217
     13 N          64.2120   83.2222   12.0359 N.ar    1  UNL1       -0.1673
     14 N          63.8035   84.1999   13.0977 N.ar    1  UNL1       -0.2449
     15 C          62.9419   85.2472   12.4568 C.ar    1  UNL1        0.0970
     16 C          64.1890   84.1407   14.5462 C.3     1  UNL1        0.1538
     17 C          63.7454   85.2231   15.4852 C.ar    1  UNL1        0.0021
     18 C          62.7889   84.9064   16.5964 C.ar    1  UNL1       -0.0023
     19 C          62.3453   85.9887   17.5354 C.ar    1  UNL1       -0.0003
     20 C          62.8583   87.3877   17.3632 C.ar    1  UNL1       -0.0000
     21 C          63.8149   87.7044   16.2520 C.ar    1  UNL1       -0.0003
     22 C          64.2584   86.6221   15.3130 C.ar    1  UNL1       -0.0023
     23 C          60.2999   90.2225   10.4504 C.2     1  UNL1        0.2015
     24 O          59.0477   90.8560   10.9800 O.2     1  UNL1       -0.2864
     25 C          63.1691   90.6872   13.1527 C.ar    1  UNL1        0.0920
     26 C          64.2804   91.2197   12.2975 C.ar    1  UNL1        0.0204
     27 C          64.0649   91.4198   10.8266 C.ar    1  UNL1        0.0312
     28 C          62.7381   91.0874   10.2109 C.ar    1  UNL1        0.1454
     29 F          62.5227   91.2875    8.7400 F       1  UNL1       -0.2040
     30 C          61.6268   90.5549   11.0661 C.ar    1  UNL1        0.0951
     31 C          61.8423   90.3549   12.5370 C.ar    1  UNL1        0.1598
     32 F          60.7309   89.8224   13.3922 F       1  UNL1       -0.2026
     33 N          63.3846   90.4871   14.6236 N.pl3   1  UNL1       -0.2166
     34 H          62.8321   89.8398   15.1185 H       1  UNL1        0.1734
     35 S          64.4419   91.2734   15.3405 S.O2    1  UNL1        0.0540
     36 O          63.3853   91.9308   16.1779 O.2     1  UNL1       -0.1545
     37 O          65.4985   90.6159   14.5031 O.2     1  UNL1       -0.1545
     38 C          65.4993   92.0595   16.0573 C.3     1  UNL1        0.1724
     39 C          68.0394   92.5954   16.1619 C.3     1  UNL1        0.0019
     40 C          66.7864   92.3927   15.3627 C.3     1  UNL1        0.0273
@<TRIPOS>BOND
     1    39    40    1
     2    40    38    1
     3    38    35    1
     4    35    36    2
     5    35    37    2
     6    35    33    1
     7    33    25    1
     8    25    26   ar
     9    26    27   ar
    10    27    28   ar
    11    28    29    1
    12    28    30   ar
    13    30    23    1
    14    23    24    2
    15    23     1    1
    16     1     2   ar
    17     2     3   ar
    18     3     4   ar
    19     4     5   ar
    20     5     6   ar
    21     6     7   ar
    22     7    11    1
    23    11    12   ar
    24    12    13   ar
    25    13    14   ar
    26    14    16    1
    27    16    17    1
    28    17    18   ar
    29    18    19   ar
    30    19    20   ar
    31    20    21   ar
    32    21    22   ar
    33    14    15   ar
    34     7     8   ar
    35     8     9   ar
    36    30    31   ar
    37    31    32    1
    38    31    25   ar
    39     9     1   ar
    40     9     4    1
    41    15    11   ar
    42    22    17   ar
    43    33    34    1
    44     5    10    1
@<TRIPOS>MOLECULE
*****
 40 44 0 0 0
SMALL
GASTEIGER

@<TRIPOS>ATOM
      1 C          60.3245   89.3299    9.3665 C.ar    1  UNL1        0.0611
      2 C          59.6823   89.5362    8.0268 C.ar    1  UNL1        0.1037
      3 N          59.8521   88.2753    7.2322 N.ar    1  UNL1       -0.2269
      4 C          60.5993   87.2897    8.0809 C.ar    1  UNL1        0.1407
      5 N          61.0515   85.8830    7.8230 N.ar    1  UNL1       -0.3374
      6 C          61.7957   85.1280    8.8842 C.ar    1  UNL1        0.0735
      7 C          62.0877   85.7798   10.2033 C.ar    1  UNL1        0.0202
      8 C          61.6355   87.1865   10.4612 C.ar    1  UNL1        0.0047
      9 C          60.8913   87.9415    9.4000 C.ar    1  UNL1        0.0386
     10 H          60.8598   85.4552    6.9573 H       1  UNL1        0.1674
     11 C          62.8320   85.0248   11.2645 C.ar    1  UNL1        0.0411
     12 C          63.5012   83.6932   11.0940 C.ar    1  UNL1        0.1217
     13 N          64.1205   83.3142   12.4065 N.ar    1  UNL1       -0.1673
     14 N          63.8340   84.4116   13.3882 N.ar    1  UNL1       -0.2449
     15 C          63.0377   85.4687   12.6824 C.ar    1  UNL1        0.0970
     16 C          64.2678   84.4458   14.8238 C.3     1  UNL1        0.1538
     17 C          63.8234   85.5675   15.7150 C.ar    1  UNL1        0.0021
     18 C          63.0543   85.2701   16.9680 C.ar    1  UNL1       -0.0023
     19 C          62.6100   86.3919   17.8593 C.ar    1  UNL1       -0.0003
     20 C          62.9348   87.8109   17.4975 C.ar    1  UNL1       -0.0000
     21 C          63.7039   88.1082   16.2444 C.ar    1  UNL1       -0.0003
     22 C          64.1482   86.9865   15.3532 C.ar    1  UNL1       -0.0023
     23 C          60.3888   90.3354   10.4777 C.2     1  UNL1        0.2015
     24 O          59.1724   91.1367   10.8354 O.2     1  UNL1       -0.2864
     25 C          64.1412   91.3386   11.2926 C.ar    1  UNL1        0.0920
     26 C          64.2313   90.9482   12.7381 C.ar    1  UNL1        0.0204
     27 C          63.0407   90.3537   13.4302 C.ar    1  UNL1        0.0312
     28 C          61.7599   90.1494   12.6767 C.ar    1  UNL1        0.1454
     29 F          60.5693   89.5548   13.3688 F       1  UNL1       -0.2040
     30 C          61.6697   90.5397   11.2312 C.ar    1  UNL1        0.0951
     31 C          62.8603   91.1343   10.5392 C.ar    1  UNL1        0.1598
     32 F          62.7700   91.5246    9.0936 F       1  UNL1       -0.2026
     33 N          65.3318   91.9331   10.6006 N.pl3   1  UNL1       -0.2166
     34 H          65.7503   91.4588    9.8462 H       1  UNL1        0.1734
     35 S          65.8848   93.2503   11.0580 S.O2    1  UNL1        0.0540
     36 O          64.7471   93.9610   10.3869 O.2     1  UNL1       -0.1545
     37 O          67.0225   92.5395   11.7292 O.2     1  UNL1       -0.1545
     38 C          66.4378   94.5674   11.5155 C.3     1  UNL1        0.1724
     39 C          67.6247   95.2800    9.3170 C.3     1  UNL1        0.0019
     40 C          66.7839   95.6254   10.5101 C.3     1  UNL1        0.0273
@<TRIPOS>BOND
     1    39    40    1
     2    40    38    1
     3    38    35    1
     4    35    36    2
     5    35    37    2
     6    35    33    1
     7    33    25    1
     8    25    26   ar
     9    26    27   ar
    10    27    28   ar
    11    28    29    1
    12    28    30   ar
    13    30    23    1
    14    23    24    2
    15    23     1    1
    16     1     2   ar
    17     2     3   ar
    18     3     4   ar
    19     4     5   ar
    20     5     6   ar
    21     6     7   ar
    22     7    11    1
    23    11    12   ar
    24    12    13   ar
    25    13    14   ar
    26    14    16    1
    27    16    17    1
    28    17    18   ar
    29    18    19   ar
    30    19    20   ar
    31    20    21   ar
    32    21    22   ar
    33    14    15   ar
    34     7     8   ar
    35     8     9   ar
    36    30    31   ar
    37    31    32    1
    38    31    25   ar
    39     9     1   ar
    40     9     4    1
    41    15    11   ar
    42    22    17   ar
    43    33    34    1
    44     5    10    1
@<TRIPOS>MOLECULE
*****
 40 44 0 0 0
SMALL
GASTEIGER

@<TRIPOS>ATOM
      1 C          61.0913   88.1351   10.9505 C.ar    1  UNL1        0.0611
      2 C          61.4789   86.7367   11.3303 C.ar    1  UNL1        0.1037
      3 N          61.2240   85.8481   10.1491 N.ar    1  UNL1       -0.2269
      4 C          60.6789   86.6972    9.0392 C.ar    1  UNL1        0.1407
      5 N          60.2466   86.3660    7.6416 N.ar    1  UNL1       -0.3374
      6 C          59.7323   87.4483    6.7393 C.ar    1  UNL1        0.0735
      7 C          59.6503   88.8617    7.2346 C.ar    1  UNL1        0.0202
      8 C          60.0826   89.1930    8.6322 C.ar    1  UNL1        0.0047
      9 C          60.5969   88.1107    9.5345 C.ar    1  UNL1        0.0386
     10 H          60.3004   85.4383    7.3165 H       1  UNL1        0.1674
     11 C          59.1360   89.9440    6.3322 C.ar    1  UNL1        0.0411
     12 C          57.7003   90.1785    5.9661 C.ar    1  UNL1        0.1217
     13 N          57.6440   91.3611    5.0452 N.ar    1  UNL1       -0.1673
     14 N          59.0449   91.8577    4.8422 N.ar    1  UNL1       -0.2449
     15 C          59.9669   90.9818    5.6377 C.ar    1  UNL1        0.0970
     16 C          59.4521   93.0251    3.9929 C.3     1  UNL1        0.1538
     17 C          60.1378   92.7937    2.6790 C.ar    1  UNL1        0.0021
     18 C          61.6140   92.5305    2.6395 C.ar    1  UNL1       -0.0023
     19 C          62.2996   92.2991    1.3256 C.ar    1  UNL1       -0.0003
     20 C          61.5090   92.3308    0.0512 C.ar    1  UNL1       -0.0000
     21 C          60.0328   92.5940    0.0907 C.ar    1  UNL1       -0.0003
     22 C          59.3472   92.8254    1.4046 C.ar    1  UNL1       -0.0023
     23 C          61.1822   89.3454   11.8319 C.2     1  UNL1        0.2015
     24 O          59.9863   89.7907   12.6202 O.2     1  UNL1       -0.2864
     25 C          64.5881   90.7949   13.2635 C.ar    1  UNL1        0.0920
     26 C          65.0428   91.6406   12.1112 C.ar    1  UNL1        0.0204
     27 C          64.2107   91.7213   10.8658 C.ar    1  UNL1        0.0312
     28 C          62.9239   90.9563   10.7726 C.ar    1  UNL1        0.1454
     29 F          62.0918   91.0370    9.5272 F       1  UNL1       -0.2040
     30 C          62.4691   90.1105   11.9250 C.ar    1  UNL1        0.0951
     31 C          63.3012   90.0298   13.1704 C.ar    1  UNL1        0.1598
     32 F          62.8464   89.1840   14.3227 F       1  UNL1       -0.2026
     33 N          65.4202   90.7142   14.5090 N.pl3   1  UNL1       -0.2166
     34 H          65.4566   89.8754   15.0231 H       1  UNL1        0.1734
     35 S          66.1967   91.9114   14.9710 S.O2    1  UNL1        0.0540
     36 O          64.9518   92.4832   15.5819 O.2     1  UNL1       -0.1545
     37 O          67.4417   91.3397   14.3601 O.2     1  UNL1       -0.1545
     38 C          66.9734   93.1087   15.4329 C.3     1  UNL1        0.1724
     39 C          69.2383   94.2017   16.0855 C.3     1  UNL1        0.0019
     40 C          68.4693   93.0433   15.5228 C.3     1  UNL1        0.0273
@<TRIPOS>BOND
     1    39    40    1
     2    40    38    1
     3    38    35    1
     4    35    36    2
     5    35    37    2
     6    35    33    1
     7    33    25    1
     8    25    26   ar
     9    26    27   ar
    10    27    28   ar
    11    28    29    1
    12    28    30   ar
    13    30    23    1
    14    23    24    2
    15    23     1    1
    16     1     2   ar
    17     2     3   ar
    18     3     4   ar
    19     4     5   ar
    20     5     6   ar
    21     6     7   ar
    22     7    11    1
    23    11    12   ar
    24    12    13   ar
    25    13    14   ar
    26    14    16    1
    27    16    17    1
    28    17    18   ar
    29    18    19   ar
    30    19    20   ar
    31    20    21   ar
    32    21    22   ar
    33    14    15   ar
    34     7     8   ar
    35     8     9   ar
    36    30    31   ar
    37    31    32    1
    38    31    25   ar
    39     9     1   ar
    40     9     4    1
    41    15    11   ar
    42    22    17   ar
    43    33    34    1
    44     5    10    1
@<TRIPOS>MOLECULE
*****
 40 44 0 0 0
SMALL
GASTEIGER

@<TRIPOS>ATOM
      1 C          61.6532   90.2911   11.9258 C.ar    1  UNL1        0.0611
      2 C          60.6226   91.3234   11.5760 C.ar    1  UNL1        0.1037
      3 N          59.8260   90.8078   10.4143 N.ar    1  UNL1       -0.2269
      4 C          60.3642   89.4569   10.0462 C.ar    1  UNL1        0.1407
      5 N          59.9719   88.4763    8.9811 N.ar    1  UNL1       -0.3374
      6 C          60.7089   87.1765    8.8501 C.ar    1  UNL1        0.0735
      7 C          61.8382   86.8572    9.7843 C.ar    1  UNL1        0.0202
      8 C          62.2305   87.8378   10.8495 C.ar    1  UNL1        0.0047
      9 C          61.4935   89.1376   10.9804 C.ar    1  UNL1        0.0386
     10 H          59.2307   88.6859    8.3679 H       1  UNL1        0.1674
     11 C          62.5752   85.5573    9.6534 C.ar    1  UNL1        0.0411
     12 C          63.2061   85.0237    8.4014 C.ar    1  UNL1        0.1217
     13 N          63.8315   83.6994    8.7256 N.ar    1  UNL1       -0.1673
     14 N          63.5871   83.4145   10.1779 N.ar    1  UNL1       -0.2449
     15 C          62.8107   84.5627   10.7513 C.ar    1  UNL1        0.0970
     16 C          64.0397   82.1954   10.9256 C.3     1  UNL1        0.1538
     17 C          63.2424   81.6920   12.0921 C.ar    1  UNL1        0.0021
     18 C          62.8775   82.6241   13.2093 C.ar    1  UNL1       -0.0023
     19 C          62.0801   82.1207   14.3758 C.ar    1  UNL1       -0.0003
     20 C          61.6477   80.6852   14.4252 C.ar    1  UNL1       -0.0000
     21 C          62.0127   79.7531   13.3081 C.ar    1  UNL1       -0.0003
     22 C          62.8100   80.2565   12.1415 C.ar    1  UNL1       -0.0023
     23 C          62.6658   90.3943   13.0277 C.2     1  UNL1        0.2015
     24 O          62.3841   89.7770   14.3654 O.2     1  UNL1       -0.2864
     25 C          65.5104   92.5057   11.2386 C.ar    1  UNL1        0.0920
     26 C          66.5486   92.5562   12.3201 C.ar    1  UNL1        0.0204
     27 C          66.2925   91.8860   13.6374 C.ar    1  UNL1        0.0312
     28 C          64.9983   91.1654   13.8734 C.ar    1  UNL1        0.1454
     29 F          64.7422   90.4953   15.1907 F       1  UNL1       -0.2040
     30 C          63.9601   91.1150   12.7919 C.ar    1  UNL1        0.0951
     31 C          64.2161   91.7851   11.4746 C.ar    1  UNL1        0.1598
     32 F          63.1779   91.7346   10.3931 F       1  UNL1       -0.2026
     33 N          65.7664   93.1759    9.9213 N.pl3   1  UNL1       -0.2166
     34 H          65.4396   92.7653    9.0884 H       1  UNL1        0.1734
     35 S          66.5205   94.4716    9.8731 S.O2    1  UNL1        0.0540
     36 O          67.6677   93.7789    9.1994 O.2     1  UNL1       -0.1545
     37 O          65.3732   95.1643   10.5468 O.2     1  UNL1       -0.1545
     38 C          67.2744   95.7674    9.8250 C.3     1  UNL1        0.1724
     39 C          66.2136   96.6834    7.6373 C.3     1  UNL1        0.0019
     40 C          67.4077   96.5099    8.5284 C.3     1  UNL1        0.0273
@<TRIPOS>BOND
     1    39    40    1
     2    40    38    1
     3    38    35    1
     4    35    36    2
     5    35    37    2
     6    35    33    1
     7    33    25    1
     8    25    26   ar
     9    26    27   ar
    10    27    28   ar
    11    28    29    1
    12    28    30   ar
    13    30    23    1
    14    23    24    2
    15    23     1    1
    16     1     2   ar
    17     2     3   ar
    18     3     4   ar
    19     4     5   ar
    20     5     6   ar
    21     6     7   ar
    22     7    11    1
    23    11    12   ar
    24    12    13   ar
    25    13    14   ar
    26    14    16    1
    27    16    17    1
    28    17    18   ar
    29    18    19   ar
    30    19    20   ar
    31    20    21   ar
    32    21    22   ar
    33    14    15   ar
    34     7     8   ar
    35     8     9   ar
    36    30    31   ar
    37    31    32    1
    38    31    25   ar
    39     9     1   ar
    40     9     4    1
    41    15    11   ar
    42    22    17   ar
    43    33    34    1
    44     5    10    1
