@<TRIPOS>MOLECULE
*****
 55 60 0 0 0
SMALL
GASTEIGER

@<TRIPOS>ATOM
      1 C          64.1883   92.0407   11.2528 C.3     1  UNL1        0.0760
      2 C          62.0925   90.5765   10.7910 C.2     1  UNL1        0.2407
      3 O          61.3517   91.2931   11.8807 O.2     1  UNL1       -0.2733
      4 N          63.5108   90.9502   10.4770 N.am    1  UNL1       -0.3043
      5 H          63.9970   90.4798    9.7618 H       1  UNL1        0.1494
      6 N          62.7970   86.2678   11.8815 N.am    1  UNL1       -0.2566
      7 C          63.7093   85.9219   13.0208 C.3     1  UNL1        0.1168
      8 C          62.5621   87.7040   11.5180 C.2     1  UNL1        0.3081
      9 O          63.2397   88.7944   12.2939 O.2     1  UNL1       -0.2523
     10 N          61.6498   88.0498   10.3787 N.am    1  UNL1       -0.2518
     11 C          60.9722   86.9593    9.6028 C.3     1  UNL1        0.1387
     12 C          60.0599   87.3051    8.4635 C.2     1  UNL1        0.0809
     13 N          59.2595   86.4524    7.5242 N.2     1  UNL1       -0.2294
     14 C          58.5300   87.3617    6.5803 C.2     1  UNL1        0.1939
     15 N          58.8796   88.7763    6.9361 N.2     1  UNL1       -0.2463
     16 C          59.8251   88.7414    8.1000 C.3     1  UNL1        0.1444
     17 C          60.5026   89.8318    8.8759 C.3     1  UNL1        0.0594
     18 C          61.4149   89.4860   10.0152 C.3     1  UNL1        0.1557
     19 C          62.1194   85.1773   11.1057 C.3     1  UNL1        0.1413
     20 C          63.0153   81.4109   11.3830 C.ar    1  UNL1        0.0875
     21 N          62.0785   82.5564   11.6289 N.ar    1  UNL1       -0.2453
     22 C          62.7109   83.7992   11.0761 C.ar    1  UNL1        0.0858
     23 C          64.0384   83.4219   10.4886 C.ar    1  UNL1        0.0530
     24 S          64.2266   81.9458   10.6782 S.2     1  UNL1       -0.0705
     25 C          62.7842   78.9080   10.7257 C.3     1  UNL1        0.0069
     26 C          62.7818   79.9816   11.7734 C.3     1  UNL1        0.0465
     27 C          62.5459   79.6258   13.2113 C.3     1  UNL1        0.0069
     28 C          64.2743   91.9553   12.7480 C.3     1  UNL1        0.0216
     29 C          63.9654   90.6631   13.4443 C.3     1  UNL1        0.0217
     30 C          64.4775   90.4184   14.8328 C.3     1  UNL1        0.0792
     31 N          64.3879   89.0472   15.4345 N.am    1  UNL1       -0.2720
     32 C          63.1130   88.5942   16.0821 C.2     1  UNL1        0.4019
     33 O          61.9277   89.5123   16.1281 O.2     1  UNL1       -0.2264
     34 H          65.1659   88.4446   15.4043 H       1  UNL1        0.1527
     35 O          63.0234   87.2231   16.6837 O.3     1  UNL1       -0.4291
     36 C          64.0358   86.1773   16.3211 C.3     1  UNL1        0.2447
     37 C          63.5843   84.8455   15.7990 C.ar    1  UNL1        0.0714
     38 C          64.4752   83.7418   15.3111 C.ar    1  UNL1        0.1053
     39 N          63.6043   82.5978   14.8836 N.ar    1  UNL1       -0.2350
     40 C          62.1752   82.9946   15.1073 C.ar    1  UNL1        0.1343
     41 S          62.1628   84.3838   15.6730 S.2     1  UNL1       -0.0652
     42 C          65.0793   91.5448   15.6197 C.3     1  UNL1        0.0460
     43 C          66.4933   91.9712   15.3576 C.ar    1  UNL1       -0.0205
     44 C          67.2109   92.8388   16.3486 C.ar    1  UNL1       -0.0042
     45 C          68.6249   93.2652   16.0865 C.ar    1  UNL1       -0.0003
     46 C          69.3213   92.8239   14.8334 C.ar    1  UNL1       -0.0000
     47 C          68.6037   91.9562   13.8423 C.ar    1  UNL1       -0.0003
     48 C          67.1897   91.5298   14.1044 C.ar    1  UNL1       -0.0042
     49 C          64.7799   93.2165   10.5335 C.3     1  UNL1        0.0459
     50 C          66.2200   93.1923   10.1143 C.ar    1  UNL1       -0.0205
     51 C          67.0857   92.0209   10.4723 C.ar    1  UNL1       -0.0042
     52 C          68.5258   91.9968   10.0530 C.ar    1  UNL1       -0.0003
     53 C          69.1000   93.1440    9.2759 C.ar    1  UNL1       -0.0000
     54 C          68.2343   94.3154    8.9179 C.ar    1  UNL1       -0.0003
     55 C          66.7942   94.3396    9.3371 C.ar    1  UNL1       -0.0042
@<TRIPOS>BOND
     1    25    26    1
     2    26    27    1
     3    26    20    1
     4    20    21   ar
     5    21    22   ar
     6    22    19    1
     7    19     6    1
     8     6     7    1
     9     6     8   am
    10     8     9    2
    11     8    10   am
    12    10    11    1
    13    11    12    1
    14    12    13    2
    15    13    14    1
    16    14    15    2
    17    15    16    1
    18    16    17    1
    19    17    18    1
    20    18     2    1
    21     2     3    2
    22     2     4   am
    23     4     1    1
    24     1    28    1
    25    28    29    1
    26    30    29    1
    27    30    42    1
    28    42    43    1
    29    43    44   ar
    30    44    45   ar
    31    45    46   ar
    32    46    47   ar
    33    47    48   ar
    34    30    31    1
    35    31    32   am
    36    32    33    2
    37    32    35    1
    38    35    36    1
    39    36    37    1
    40    37    38   ar
    41    38    39   ar
    42    39    40   ar
    43    40    41   ar
    44     1    49    1
    45    49    50    1
    46    50    51   ar
    47    51    52   ar
    48    52    53   ar
    49    53    54   ar
    50    54    55   ar
    51    22    23   ar
    52    23    24   ar
    53    24    20   ar
    54    18    10    1
    55    48    43   ar
    56    41    37   ar
    57    55    50   ar
    58    16    12    1
    59     4     5    1
    60    31    34    1
@<TRIPOS>MOLECULE
*****
 55 60 0 0 0
SMALL
GASTEIGER

@<TRIPOS>ATOM
      1 C          62.1622   87.2096   10.9379 C.3     1  UNL1        0.0760
      2 C          62.5908   89.7604   11.1816 C.2     1  UNL1        0.2407
      3 O          61.1756   90.0376   10.7690 O.2     1  UNL1       -0.2733
      4 N          63.0841   88.3464   11.2660 N.am    1  UNL1       -0.3043
      5 H          64.0130   88.1645   11.5368 H       1  UNL1        0.1494
      6 N          63.4073   90.8277   15.4763 N.am    1  UNL1       -0.2566
      7 C          62.7575   90.0467   16.5798 C.3     1  UNL1        0.1168
      8 C          63.1351   90.4719   14.0447 C.2     1  UNL1        0.3081
      9 O          62.2131   89.3351   13.7167 O.2     1  UNL1       -0.2523
     10 N          63.7850   91.2530   12.9412 N.am    1  UNL1       -0.2518
     11 C          64.7070   92.3898   13.2693 C.3     1  UNL1        0.1387
     12 C          65.3568   93.1708   12.1658 C.2     1  UNL1        0.0809
     13 N          66.3039   94.3338   12.1824 N.2     1  UNL1       -0.2294
     14 C          66.6171   94.6968   10.7611 C.2     1  UNL1        0.1939
     15 N          65.8635   93.7582    9.8661 N.2     1  UNL1       -0.2463
     16 C          65.0846   92.8151   10.7342 C.3     1  UNL1        0.1444
     17 C          64.1626   91.6783   10.4062 C.3     1  UNL1        0.0594
     18 C          63.5128   90.8973   11.5097 C.3     1  UNL1        0.1557
     19 C          64.3293   91.9645   15.8043 C.3     1  UNL1        0.1413
     20 C          68.1398   92.4130   15.2174 C.ar    1  UNL1        0.0875
     21 N          66.8251   92.9188   15.7329 N.ar    1  UNL1       -0.2453
     22 C          65.7854   91.8737   15.4558 C.ar    1  UNL1        0.0858
     23 C          66.4575   90.7219   14.7690 C.ar    1  UNL1        0.0530
     24 S          67.9126   91.0552   14.6216 S.2     1  UNL1       -0.0705
     25 C          70.6087   92.6739   14.4515 C.3     1  UNL1        0.0069
     26 C          69.4513   93.1376   15.2856 C.3     1  UNL1        0.0465
     27 C          69.6056   94.3259   16.1878 C.3     1  UNL1        0.0069
     28 C          62.1405   85.9868   11.8066 C.3     1  UNL1        0.0216
     29 C          62.2321   84.6243   11.1860 C.3     1  UNL1        0.0217
     30 C          63.4549   83.7826   11.4018 C.3     1  UNL1        0.0792
     31 N          64.3410   84.0366   12.5852 N.am    1  UNL1       -0.2720
     32 C          63.9129   83.5909   13.9520 C.2     1  UNL1        0.4019
     33 O          62.5988   82.8913   14.1354 O.2     1  UNL1       -0.2264
     34 H          65.2034   84.4958   12.4649 H       1  UNL1        0.1527
     35 O          64.7989   83.8449   15.1354 O.3     1  UNL1       -0.4291
     36 C          64.7550   85.1715   15.8343 C.3     1  UNL1        0.2447
     37 C          63.4680   85.6653   16.4256 C.ar    1  UNL1        0.0714
     38 C          62.0885   85.2584   15.9995 C.ar    1  UNL1        0.1053
     39 N          61.1023   85.9944   16.8574 N.ar    1  UNL1       -0.2350
     40 C          61.8724   86.8560   17.8137 C.ar    1  UNL1        0.1343
     41 S          63.3344   86.6527   17.5468 S.2     1  UNL1       -0.0652
     42 C          63.7917   82.6870   10.4342 C.3     1  UNL1        0.0460
     43 C          63.3446   81.2815   10.7074 C.ar    1  UNL1       -0.0205
     44 C          63.2323   80.2978    9.5808 C.ar    1  UNL1       -0.0042
     45 C          62.7853   78.8923    9.8540 C.ar    1  UNL1       -0.0003
     46 C          62.4505   78.4706   11.2540 C.ar    1  UNL1       -0.0000
     47 C          62.5627   79.4543   12.3808 C.ar    1  UNL1       -0.0003
     48 C          63.0098   80.8598   12.1075 C.ar    1  UNL1       -0.0042
     49 C          61.2619   87.2954    9.7412 C.3     1  UNL1        0.0459
     50 C          61.4452   86.3452    8.5951 C.ar    1  UNL1       -0.0205
     51 C          60.2770   85.9837    7.7265 C.ar    1  UNL1       -0.0042
     52 C          60.4603   85.0335    6.5803 C.ar    1  UNL1       -0.0003
     53 C          61.8117   84.4449    6.3029 C.ar    1  UNL1       -0.0000
     54 C          62.9800   84.8064    7.1716 C.ar    1  UNL1       -0.0003
     55 C          62.7967   85.7566    8.3177 C.ar    1  UNL1       -0.0042
@<TRIPOS>BOND
     1    25    26    1
     2    26    27    1
     3    26    20    1
     4    20    21   ar
     5    21    22   ar
     6    22    19    1
     7    19     6    1
     8     6     7    1
     9     6     8   am
    10     8     9    2
    11     8    10   am
    12    10    11    1
    13    11    12    1
    14    12    13    2
    15    13    14    1
    16    14    15    2
    17    15    16    1
    18    16    17    1
    19    17    18    1
    20    18     2    1
    21     2     3    2
    22     2     4   am
    23     4     1    1
    24     1    28    1
    25    28    29    1
    26    30    29    1
    27    30    42    1
    28    42    43    1
    29    43    44   ar
    30    44    45   ar
    31    45    46   ar
    32    46    47   ar
    33    47    48   ar
    34    30    31    1
    35    31    32   am
    36    32    33    2
    37    32    35    1
    38    35    36    1
    39    36    37    1
    40    37    38   ar
    41    38    39   ar
    42    39    40   ar
    43    40    41   ar
    44     1    49    1
    45    49    50    1
    46    50    51   ar
    47    51    52   ar
    48    52    53   ar
    49    53    54   ar
    50    54    55   ar
    51    22    23   ar
    52    23    24   ar
    53    24    20   ar
    54    18    10    1
    55    48    43   ar
    56    41    37   ar
    57    55    50   ar
    58    16    12    1
    59     4     5    1
    60    31    34    1
@<TRIPOS>MOLECULE
*****
 55 60 0 0 0
SMALL
GASTEIGER

@<TRIPOS>ATOM
      1 C          62.6992   90.5915   11.7834 C.3     1  UNL1        0.0760
      2 C          63.6323   89.3216   13.8490 C.2     1  UNL1        0.2407
      3 O          64.9861   89.9194   13.6050 O.2     1  UNL1       -0.2733
      4 N          62.4888   89.6577   12.9383 N.am    1  UNL1       -0.3043
      5 H          61.6002   89.2653   13.0985 H       1  UNL1        0.1494
      6 N          63.5469   84.8754   13.1608 N.am    1  UNL1       -0.2566
      7 C          63.7289   84.3271   11.7765 C.3     1  UNL1        0.1168
      8 C          63.5754   86.3575   13.3902 C.2     1  UNL1        0.3081
      9 O          63.7859   87.2912   12.2353 O.2     1  UNL1       -0.2523
     10 N          63.3933   86.9058   14.7745 N.am    1  UNL1       -0.2518
     11 C          63.1828   85.9719   15.9294 C.3     1  UNL1        0.1387
     12 C          63.0008   86.5202   17.3137 C.2     1  UNL1        0.0809
     13 N          62.7764   85.8505   18.6370 N.2     1  UNL1       -0.2294
     14 C          62.6663   86.9187   19.6842 C.2     1  UNL1        0.1939
     15 N          62.8225   88.2486   19.0082 N.2     1  UNL1       -0.2463
     16 C          63.0292   88.0023   17.5430 C.3     1  UNL1        0.1444
     17 C          63.2397   88.9361   16.3882 C.3     1  UNL1        0.0594
     18 C          63.4218   88.3878   15.0039 C.3     1  UNL1        0.1557
     19 C          63.3364   83.9416   14.3156 C.3     1  UNL1        0.1413
     20 C          60.9593   80.8859   14.0370 C.ar    1  UNL1        0.0875
     21 N          61.2162   82.3164   14.4081 N.ar    1  UNL1       -0.2453
     22 C          62.6515   82.6246   14.1001 C.ar    1  UNL1        0.0858
     23 C          63.2818   81.3846   13.5387 C.ar    1  UNL1        0.0530
     24 S          62.2359   80.3099   13.4997 S.2     1  UNL1       -0.0705
     25 C          59.6403   78.6662   14.3252 C.3     1  UNL1        0.0069
     26 C          59.6549   80.1589   14.1785 C.3     1  UNL1        0.0465
     27 C          58.3651   80.9247   14.1731 C.3     1  UNL1        0.0069
     28 C          63.8636   91.5373   11.7862 C.3     1  UNL1        0.0216
     29 C          64.4057   92.0630   10.4901 C.3     1  UNL1        0.0217
     30 C          65.8157   92.5698   10.4175 C.3     1  UNL1        0.0792
     31 N          66.1493   93.7349    9.5335 N.am    1  UNL1       -0.2720
     32 C          67.4705   93.7847    8.8252 C.2     1  UNL1        0.4019
     33 O          68.4582   92.6695    9.0008 O.2     1  UNL1       -0.2264
     34 H          65.5010   94.4668    9.4182 H       1  UNL1        0.1527
     35 O          67.8042   94.9497    7.9412 O.3     1  UNL1       -0.4291
     36 C          67.2920   96.3185    8.2791 C.3     1  UNL1        0.2447
     37 C          66.4598   96.5251    9.5099 C.ar    1  UNL1        0.0714
     38 C          66.9743   96.6262   10.9153 C.ar    1  UNL1        0.1053
     39 N          65.7995   96.8304   11.8254 N.ar    1  UNL1       -0.2350
     40 C          64.5591   96.8554   10.9825 C.ar    1  UNL1        0.1343
     41 S          64.9672   96.6667    9.5515 S.2     1  UNL1       -0.0652
     42 C          66.8920   91.9117   11.2289 C.3     1  UNL1        0.0460
     43 C          67.1756   92.3857   12.6235 C.ar    1  UNL1       -0.0205
     44 C          68.2893   91.7659   13.4143 C.ar    1  UNL1       -0.0042
     45 C          68.5730   92.2398   14.8089 C.ar    1  UNL1       -0.0003
     46 C          67.7429   93.3337   15.4126 C.ar    1  UNL1       -0.0000
     47 C          66.6292   93.9535   14.6218 C.ar    1  UNL1       -0.0003
     48 C          66.3455   93.4795   13.2273 C.ar    1  UNL1       -0.0042
     49 C          61.7453   90.5796   10.6258 C.3     1  UNL1        0.0459
     50 C          61.4256   89.2895    9.9307 C.ar    1  UNL1       -0.0205
     51 C          62.3751   88.1320   10.0239 C.ar    1  UNL1       -0.0042
     52 C          62.0553   86.8418    9.3287 C.ar    1  UNL1       -0.0003
     53 C          60.7861   86.7092    8.5404 C.ar    1  UNL1       -0.0000
     54 C          59.8367   87.8667    8.4471 C.ar    1  UNL1       -0.0003
     55 C          60.1564   89.1568    9.1423 C.ar    1  UNL1       -0.0042
@<TRIPOS>BOND
     1    25    26    1
     2    26    27    1
     3    26    20    1
     4    20    21   ar
     5    21    22   ar
     6    22    19    1
     7    19     6    1
     8     6     7    1
     9     6     8   am
    10     8     9    2
    11     8    10   am
    12    10    11    1
    13    11    12    1
    14    12    13    2
    15    13    14    1
    16    14    15    2
    17    15    16    1
    18    16    17    1
    19    17    18    1
    20    18     2    1
    21     2     3    2
    22     2     4   am
    23     4     1    1
    24     1    28    1
    25    28    29    1
    26    30    29    1
    27    30    42    1
    28    42    43    1
    29    43    44   ar
    30    44    45   ar
    31    45    46   ar
    32    46    47   ar
    33    47    48   ar
    34    30    31    1
    35    31    32   am
    36    32    33    2
    37    32    35    1
    38    35    36    1
    39    36    37    1
    40    37    38   ar
    41    38    39   ar
    42    39    40   ar
    43    40    41   ar
    44     1    49    1
    45    49    50    1
    46    50    51   ar
    47    51    52   ar
    48    52    53   ar
    49    53    54   ar
    50    54    55   ar
    51    22    23   ar
    52    23    24   ar
    53    24    20   ar
    54    18    10    1
    55    48    43   ar
    56    41    37   ar
    57    55    50   ar
    58    16    12    1
    59     4     5    1
    60    31    34    1
