@<TRIPOS>MOLECULE
*****
 30 33 0 0 0
SMALL
GASTEIGER

@<TRIPOS>ATOM
      1 C          63.2732   83.8338   13.0332 C.ar    1  UNL1        0.1564
      2 N          62.2607   84.9302   12.8825 N.ar    1  UNL1       -0.2274
      3 C          61.9603   85.4921   11.5245 C.ar    1  UNL1        0.0965
      4 C          62.6725   84.9577   10.3174 C.ar    1  UNL1        0.0037
      5 C          63.6850   83.8613   10.4681 C.ar    1  UNL1        0.0301
      6 C          63.9853   83.2994   11.8260 C.ar    1  UNL1        0.1710
      7 F          64.9978   82.2030   11.9768 F       1  UNL1       -0.2012
      8 N          63.5736   83.2719   14.3911 N.pl3   1  UNL1       -0.3126
      9 H          63.2424   82.3783   14.6383 H       1  UNL1        0.1486
     10 C          64.3786   84.0713   15.3725 C.3     1  UNL1        0.1170
     11 C          63.4292   88.4174   16.0501 C.ar    1  UNL1        0.2250
     12 C          64.3507   88.0157   14.9367 C.ar    1  UNL1        0.0574
     13 C          64.6671   86.5670   14.7109 C.ar    1  UNL1        0.0037
     14 C          64.0621   85.5199   15.5984 C.ar    1  UNL1        0.0168
     15 C          63.1406   85.9216   16.7117 C.ar    1  UNL1        0.0994
     16 N          62.8242   87.3703   16.9376 N.ar    1  UNL1       -0.2104
     17 C          63.9569   90.9271   15.6344 C.3     1  UNL1        0.2542
     18 O          63.1127   89.8661   16.2760 O.3     1  UNL1       -0.4561
     19 C          62.3721   85.5197    8.9594 C.3     1  UNL1        0.0559
     20 C          61.3900   86.6442    8.8135 C.ar    1  UNL1        0.0043
     21 C          60.1483   86.6267    7.9722 C.ar    1  UNL1        0.0966
     22 N          59.4682   87.9552    8.1221 N.ar    1  UNL1       -0.2273
     23 C          60.2896   88.7938    9.0560 C.ar    1  UNL1        0.1402
     24 N          60.1095   90.1904    9.5725 N.ar    1  UNL1       -0.3377
     25 C          61.1171   90.7768   10.5163 C.ar    1  UNL1        0.0691
     26 C          62.3048   89.9665   10.9437 C.ar    1  UNL1       -0.0047
     27 C          63.3125   90.5529   11.8876 C.3     1  UNL1        0.0326
     28 C          62.4850   88.5698   10.4272 C.ar    1  UNL1       -0.0001
     29 C          61.4774   87.9834    9.4833 C.ar    1  UNL1        0.0315
     30 H          59.3299   90.7223    9.2920 H       1  UNL1        0.1674
@<TRIPOS>BOND
     1    17    18    1
     2    18    11    1
     3    11    12   ar
     4    12    13   ar
     5    13    14   ar
     6    14    10    1
     7    10     8    1
     8     8     1    1
     9     1     2   ar
    10     2     3   ar
    11     3     4   ar
    12     4    19    1
    13    19    20    1
    14    20    21   ar
    15    21    22   ar
    16    22    23   ar
    17    23    24   ar
    18    24    25   ar
    19    25    26   ar
    20    26    27    1
    21    26    28   ar
    22    28    29   ar
    23     4     5   ar
    24     5     6   ar
    25     6     7    1
    26    14    15   ar
    27    15    16   ar
    28    16    11   ar
    29     6     1   ar
    30    29    20   ar
    31    29    23    1
    32     8     9    1
    33    24    30    1
@<TRIPOS>MOLECULE
*****
 30 33 0 0 0
SMALL
GASTEIGER

@<TRIPOS>ATOM
      1 C          63.6773   86.0783   15.8419 C.ar    1  UNL1        0.1564
      2 N          64.2716   86.8087   14.6743 N.ar    1  UNL1       -0.2274
      3 C          64.2843   88.3084   14.6555 C.ar    1  UNL1        0.0965
      4 C          63.7027   89.0779   15.8043 C.ar    1  UNL1        0.0037
      5 C          63.1084   88.3475   16.9719 C.ar    1  UNL1        0.0301
      6 C          63.0957   86.8477   16.9907 C.ar    1  UNL1        0.1710
      7 F          62.5014   86.1173   18.1583 F       1  UNL1       -0.2012
      8 N          63.6646   84.5785   15.8607 N.pl3   1  UNL1       -0.3126
      9 H          64.4127   84.0850   16.2681 H       1  UNL1        0.1486
     10 C          62.5120   83.8305   15.2589 C.3     1  UNL1        0.1170
     11 C          63.0498   81.6080   11.3832 C.ar    1  UNL1        0.2250
     12 C          62.7526   80.8538   12.6453 C.ar    1  UNL1        0.0574
     13 C          62.5733   81.5946   13.9371 C.ar    1  UNL1        0.0037
     14 C          62.6913   83.0897   13.9670 C.ar    1  UNL1        0.0168
     15 C          62.9886   83.8439   12.7049 C.ar    1  UNL1        0.0994
     16 N          63.1678   83.1031   11.4130 N.ar    1  UNL1       -0.2104
     17 C          62.8166   79.4287    9.9881 C.3     1  UNL1        0.2542
     18 O          63.2291   80.8672   10.0913 O.3     1  UNL1       -0.4561
     19 C          63.7154   90.5778   15.7854 C.3     1  UNL1        0.0559
     20 C          64.7439   91.3090   14.9745 C.ar    1  UNL1        0.0043
     21 C          65.9979   91.9400   15.5031 C.ar    1  UNL1        0.0966
     22 N          66.7280   92.5585   14.3479 N.ar    1  UNL1       -0.2273
     23 C          65.9252   92.3097   13.1054 C.ar    1  UNL1        0.1402
     24 N          66.1524   92.6867   11.6715 N.ar    1  UNL1       -0.3377
     25 C          65.1533   92.2913   10.6248 C.ar    1  UNL1        0.0691
     26 C          63.9271   91.5191   11.0121 C.ar    1  UNL1       -0.0047
     27 C          62.9280   91.1237    9.9654 C.3     1  UNL1        0.0326
     28 C          63.6999   91.1422   12.4461 C.ar    1  UNL1       -0.0001
     29 C          64.6990   91.5375   13.4927 C.ar    1  UNL1        0.0315
     30 H          66.9572   93.1935   11.4173 H       1  UNL1        0.1674
@<TRIPOS>BOND
     1    17    18    1
     2    18    11    1
     3    11    12   ar
     4    12    13   ar
     5    13    14   ar
     6    14    10    1
     7    10     8    1
     8     8     1    1
     9     1     2   ar
    10     2     3   ar
    11     3     4   ar
    12     4    19    1
    13    19    20    1
    14    20    21   ar
    15    21    22   ar
    16    22    23   ar
    17    23    24   ar
    18    24    25   ar
    19    25    26   ar
    20    26    27    1
    21    26    28   ar
    22    28    29   ar
    23     4     5   ar
    24     5     6   ar
    25     6     7    1
    26    14    15   ar
    27    15    16   ar
    28    16    11   ar
    29     6     1   ar
    30    29    20   ar
    31    29    23    1
    32     8     9    1
    33    24    30    1
@<TRIPOS>MOLECULE
*****
 30 33 0 0 0
SMALL
GASTEIGER

@<TRIPOS>ATOM
      1 C          61.8163   89.3319   11.3944 C.ar    1  UNL1        0.1564
      2 N          62.6918   89.7369   12.5431 N.ar    1  UNL1       -0.2274
      3 C          63.6873   90.8459   12.3726 C.ar    1  UNL1        0.0965
      4 C          63.8073   91.5499   11.0536 C.ar    1  UNL1        0.0037
      5 C          62.9318   91.1449    9.9049 C.ar    1  UNL1        0.0301
      6 C          61.9363   90.0359   10.0754 C.ar    1  UNL1        0.1710
      7 F          61.0608   89.6309    8.9267 F       1  UNL1       -0.2012
      8 N          60.8208   88.2229   11.5648 N.pl3   1  UNL1       -0.3126
      9 H          60.1940   88.2364   12.3239 H       1  UNL1        0.1486
     10 C          60.7803   87.0932   10.5788 C.3     1  UNL1        0.1170
     11 C          63.7143   83.6988   10.9239 C.ar    1  UNL1        0.2250
     12 C          63.4318   84.3128    9.5848 C.ar    1  UNL1        0.0574
     13 C          62.4538   85.4442    9.4698 C.ar    1  UNL1        0.0037
     14 C          61.7583   85.9618   10.6939 C.ar    1  UNL1        0.0168
     15 C          62.0407   85.3478   12.0330 C.ar    1  UNL1        0.0994
     16 N          63.0188   84.2164   12.1480 N.ar    1  UNL1       -0.2104
     17 C          64.6757   81.6820   12.2498 C.3     1  UNL1        0.2542
     18 O          64.6923   82.5674   11.0391 O.3     1  UNL1       -0.4561
     19 C          64.8029   92.6590   10.8831 C.3     1  UNL1        0.0559
     20 C          66.2508   92.4215   11.1946 C.ar    1  UNL1        0.0043
     21 C          67.3409   92.1838   10.1920 C.ar    1  UNL1        0.0966
     22 N          68.6267   91.9954   10.9412 N.ar    1  UNL1       -0.2273
     23 C          68.3312   92.1166   12.4069 C.ar    1  UNL1        0.1402
     24 N          69.2096   92.0213   13.6190 N.ar    1  UNL1       -0.3377
     25 C          68.6195   92.1892   14.9878 C.ar    1  UNL1        0.0691
     26 C          67.1512   92.4525   15.1444 C.ar    1  UNL1       -0.0047
     27 C          66.5611   92.6205   16.5133 C.3     1  UNL1        0.0326
     28 C          66.2728   92.5479   13.9323 C.ar    1  UNL1       -0.0001
     29 C          66.8629   92.3800   12.5635 C.ar    1  UNL1        0.0315
     30 H          70.1733   91.8484   13.5162 H       1  UNL1        0.1674
@<TRIPOS>BOND
     1    17    18    1
     2    18    11    1
     3    11    12   ar
     4    12    13   ar
     5    13    14   ar
     6    14    10    1
     7    10     8    1
     8     8     1    1
     9     1     2   ar
    10     2     3   ar
    11     3     4   ar
    12     4    19    1
    13    19    20    1
    14    20    21   ar
    15    21    22   ar
    16    22    23   ar
    17    23    24   ar
    18    24    25   ar
    19    25    26   ar
    20    26    27    1
    21    26    28   ar
    22    28    29   ar
    23     4     5   ar
    24     5     6   ar
    25     6     7    1
    26    14    15   ar
    27    15    16   ar
    28    16    11   ar
    29     6     1   ar
    30    29    20   ar
    31    29    23    1
    32     8     9    1
    33    24    30    1
@<TRIPOS>MOLECULE
*****
 30 33 0 0 0
SMALL
GASTEIGER

@<TRIPOS>ATOM
      1 C          62.3924   89.8499   10.9791 C.ar    1  UNL1        0.1564
      2 N          61.6405   89.4427    9.7467 N.ar    1  UNL1       -0.2274
      3 C          61.4067   87.9897    9.4566 C.ar    1  UNL1        0.0965
      4 C          61.9249   86.9440   10.3989 C.ar    1  UNL1        0.0037
      5 C          62.6768   87.3512   11.6313 C.ar    1  UNL1        0.0301
      6 C          62.9106   88.8041   11.9213 C.ar    1  UNL1        0.1710
      7 F          63.6625   89.2114   13.1537 F       1  UNL1       -0.2012
      8 N          62.6262   91.3029   11.2692 N.pl3   1  UNL1       -0.3126
      9 H          61.9762   91.8078   11.8094 H       1  UNL1        0.1486
     10 C          63.8503   91.9867   10.7363 C.3     1  UNL1        0.1170
     11 C          67.5372   92.3161   13.2951 C.ar    1  UNL1        0.2250
     12 C          66.2321   91.9047   13.9096 C.ar    1  UNL1        0.0574
     13 C          65.0032   91.7949   13.0566 C.ar    1  UNL1        0.0037
     14 C          65.0793   92.0965   11.5892 C.ar    1  UNL1        0.0168
     15 C          66.3844   92.5079   10.9748 C.ar    1  UNL1        0.0994
     16 N          67.6134   92.6177   11.8277 N.ar    1  UNL1       -0.2104
     17 C          68.6682   92.9858   15.5362 C.3     1  UNL1        0.2542
     18 O          68.7662   92.4259   14.1480 O.3     1  UNL1       -0.4561
     19 C          61.6911   85.4909   10.1088 C.3     1  UNL1        0.0559
     20 C          62.7476   84.4799   10.4429 C.ar    1  UNL1        0.0043
     21 C          63.6741   83.8175    9.4668 C.ar    1  UNL1        0.0966
     22 N          64.5623   82.8821   10.2325 N.ar    1  UNL1       -0.2273
     23 C          64.1847   82.9664   11.6817 C.ar    1  UNL1        0.1402
     24 N          64.7172   82.2716   12.8997 N.ar    1  UNL1       -0.3377
     25 C          64.1282   82.5643   14.2478 C.ar    1  UNL1        0.0691
     26 C          63.0067   83.5518   14.3779 C.ar    1  UNL1       -0.0047
     27 C          62.4176   83.8445   15.7260 C.3     1  UNL1        0.0326
     28 C          62.4742   84.2467   13.1598 C.ar    1  UNL1       -0.0001
     29 C          63.0632   83.9540   11.8118 C.ar    1  UNL1        0.0315
     30 H          65.4533   81.6234   12.8144 H       1  UNL1        0.1674
@<TRIPOS>BOND
     1    17    18    1
     2    18    11    1
     3    11    12   ar
     4    12    13   ar
     5    13    14   ar
     6    14    10    1
     7    10     8    1
     8     8     1    1
     9     1     2   ar
    10     2     3   ar
    11     3     4   ar
    12     4    19    1
    13    19    20    1
    14    20    21   ar
    15    21    22   ar
    16    22    23   ar
    17    23    24   ar
    18    24    25   ar
    19    25    26   ar
    20    26    27    1
    21    26    28   ar
    22    28    29   ar
    23     4     5   ar
    24     5     6   ar
    25     6     7    1
    26    14    15   ar
    27    15    16   ar
    28    16    11   ar
    29     6     1   ar
    30    29    20   ar
    31    29    23    1
    32     8     9    1
    33    24    30    1
@<TRIPOS>MOLECULE
*****
 30 33 0 0 0
SMALL
GASTEIGER

@<TRIPOS>ATOM
      1 C          61.3573   87.3510    9.3403 C.ar    1  UNL1        0.1564
      2 N          62.3162   86.7574    8.3513 N.ar    1  UNL1       -0.2274
      3 C          63.0372   85.4832    8.6777 C.ar    1  UNL1        0.0965
      4 C          62.7994   84.8026    9.9931 C.ar    1  UNL1        0.0037
      5 C          61.8405   85.3963   10.9821 C.ar    1  UNL1        0.0301
      6 C          61.1195   86.6704   10.6557 C.ar    1  UNL1        0.1710
      7 F          60.1606   87.2641   11.6447 F       1  UNL1       -0.2012
      8 N          60.6363   88.6252    9.0139 N.pl3   1  UNL1       -0.3126
      9 H          60.2518   88.7574    8.1173 H       1  UNL1        0.1486
     10 C          60.5010   89.6980   10.0536 C.3     1  UNL1        0.1170
     11 C          64.1597   91.2861   12.1372 C.ar    1  UNL1        0.2250
     12 C          63.9331   91.5877   10.6854 C.ar    1  UNL1        0.0574
     13 C          62.7135   91.0583    9.9909 C.ar    1  UNL1        0.0037
     14 C          61.7206   90.2273   10.7482 C.ar    1  UNL1        0.0168
     15 C          61.9472   89.9257   12.2000 C.ar    1  UNL1        0.0994
     16 N          63.1668   90.4551   12.8944 N.ar    1  UNL1       -0.2104
     17 C          65.9772   93.1233   12.4048 C.3     1  UNL1        0.2542
     18 O          65.3793   91.8155   12.8317 O.3     1  UNL1       -0.4561
     19 C          63.5204   83.5284   10.3195 C.3     1  UNL1        0.0559
     20 C          63.2769   82.8438   11.6317 C.ar    1  UNL1        0.0043
     21 C          62.8154   81.4284   11.8155 C.ar    1  UNL1        0.0966
     22 N          62.7054   81.1643   13.2880 N.ar    1  UNL1       -0.2273
     23 C          63.0989   82.4164   14.0142 C.ar    1  UNL1        0.1402
     24 N          63.1812   82.7455   15.4753 N.ar    1  UNL1       -0.3377
     25 C          63.6168   84.1126   15.9128 C.ar    1  UNL1        0.0691
     26 C          63.9700   85.1505   14.8891 C.ar    1  UNL1       -0.0047
     27 C          64.4056   86.5177   15.3267 C.3     1  UNL1        0.0326
     28 C          63.8877   84.8215   13.4280 C.ar    1  UNL1       -0.0001
     29 C          63.4521   83.4544   12.9906 C.ar    1  UNL1        0.0315
     30 H          62.9494   82.0642   16.1472 H       1  UNL1        0.1674
@<TRIPOS>BOND
     1    17    18    1
     2    18    11    1
     3    11    12   ar
     4    12    13   ar
     5    13    14   ar
     6    14    10    1
     7    10     8    1
     8     8     1    1
     9     1     2   ar
    10     2     3   ar
    11     3     4   ar
    12     4    19    1
    13    19    20    1
    14    20    21   ar
    15    21    22   ar
    16    22    23   ar
    17    23    24   ar
    18    24    25   ar
    19    25    26   ar
    20    26    27    1
    21    26    28   ar
    22    28    29   ar
    23     4     5   ar
    24     5     6   ar
    25     6     7    1
    26    14    15   ar
    27    15    16   ar
    28    16    11   ar
    29     6     1   ar
    30    29    20   ar
    31    29    23    1
    32     8     9    1
    33    24    30    1
@<TRIPOS>MOLECULE
*****
 30 33 0 0 0
SMALL
GASTEIGER

@<TRIPOS>ATOM
      1 C          61.8939   89.4700   11.4855 C.ar    1  UNL1        0.1564
      2 N          62.7315   89.9396   12.6378 N.ar    1  UNL1       -0.2274
      3 C          63.7449   91.0266   12.4343 C.ar    1  UNL1        0.0965
      4 C          63.9206   91.6440   11.0786 C.ar    1  UNL1        0.0037
      5 C          63.0830   91.1744    9.9263 C.ar    1  UNL1        0.0301
      6 C          62.0696   90.0873   10.1298 C.ar    1  UNL1        0.1710
      7 F          61.2320   89.6177    8.9775 F       1  UNL1       -0.2012
      8 N          60.8805   88.3829   11.6889 N.pl3   1  UNL1       -0.3126
      9 H          59.9713   88.6080   11.9919 H       1  UNL1        0.1486
     10 C          61.2524   86.9529   11.4306 C.3     1  UNL1        0.1170
     11 C          61.1838   85.3333    7.2327 C.ar    1  UNL1        0.2250
     12 C          60.0013   86.0871    7.7652 C.ar    1  UNL1        0.0574
     13 C          60.0242   86.6269    9.1645 C.ar    1  UNL1        0.0037
     14 C          61.2296   86.4130   10.0313 C.ar    1  UNL1        0.0168
     15 C          62.4120   85.6591    9.4988 C.ar    1  UNL1        0.0994
     16 N          62.3891   85.1193    8.0995 N.ar    1  UNL1       -0.2104
     17 C          62.4100   84.2239    5.2288 C.3     1  UNL1        0.2542
     18 O          61.1609   84.7934    5.8335 O.3     1  UNL1       -0.4561
     19 C          64.9341   92.7311   10.8752 C.3     1  UNL1        0.0559
     20 C          66.3892   92.4537   11.1111 C.ar    1  UNL1        0.0043
     21 C          67.4185   92.1863   10.0533 C.ar    1  UNL1        0.0966
     22 N          68.7359   91.9623   10.7347 N.ar    1  UNL1       -0.2273
     23 C          68.5207   92.0911   12.2136 C.ar    1  UNL1        0.1402
     24 N          69.4581   91.9711   13.3784 N.ar    1  UNL1       -0.3377
     25 C          68.9451   92.1548   14.7759 C.ar    1  UNL1        0.0691
     26 C          67.4947   92.4585   15.0085 C.ar    1  UNL1       -0.0047
     27 C          66.9816   92.6422   16.4061 C.3     1  UNL1        0.0326
     28 C          66.5573   92.5785   13.8437 C.ar    1  UNL1       -0.0001
     29 C          67.0704   92.3948   12.4462 C.ar    1  UNL1        0.0315
     30 H          70.4100   91.7718   13.2257 H       1  UNL1        0.1674
@<TRIPOS>BOND
     1    17    18    1
     2    18    11    1
     3    11    12   ar
     4    12    13   ar
     5    13    14   ar
     6    14    10    1
     7    10     8    1
     8     8     1    1
     9     1     2   ar
    10     2     3   ar
    11     3     4   ar
    12     4    19    1
    13    19    20    1
    14    20    21   ar
    15    21    22   ar
    16    22    23   ar
    17    23    24   ar
    18    24    25   ar
    19    25    26   ar
    20    26    27    1
    21    26    28   ar
    22    28    29   ar
    23     4     5   ar
    24     5     6   ar
    25     6     7    1
    26    14    15   ar
    27    15    16   ar
    28    16    11   ar
    29     6     1   ar
    30    29    20   ar
    31    29    23    1
    32     8     9    1
    33    24    30    1
@<TRIPOS>MOLECULE
*****
 30 33 0 0 0
SMALL
GASTEIGER

@<TRIPOS>ATOM
      1 C          62.6392   89.3429   12.0524 C.ar    1  UNL1        0.1564
      2 N          63.3649   88.4636   13.0273 N.ar    1  UNL1       -0.2274
      3 C          63.3907   86.9780   12.8220 C.ar    1  UNL1        0.0965
      4 C          62.6908   86.3716   11.6420 C.ar    1  UNL1        0.0037
      5 C          61.9651   87.2509   10.6671 C.ar    1  UNL1        0.0301
      6 C          61.9394   88.7365   10.8724 C.ar    1  UNL1        0.1710
      7 F          61.2137   89.6158    9.8976 F       1  UNL1       -0.2012
      8 N          62.6134   90.8286   12.2576 N.pl3   1  UNL1       -0.3126
      9 H          61.9120   91.2363   12.8153 H       1  UNL1        0.1486
     10 C          63.6562   91.6931   11.6131 C.3     1  UNL1        0.1170
     11 C          67.5645   92.4473   13.7120 C.ar    1  UNL1        0.2250
     12 C          66.4318   91.7949   14.4477 C.ar    1  UNL1        0.0574
     13 C          65.1290   91.5435   13.7481 C.ar    1  UNL1        0.0037
     14 C          64.9590   91.9445   12.3127 C.ar    1  UNL1        0.0168
     15 C          66.0917   92.5969   11.5769 C.ar    1  UNL1        0.0994
     16 N          67.3945   92.8483   12.2766 N.ar    1  UNL1       -0.2104
     17 C          68.8795   93.3485   15.7636 C.3     1  UNL1        0.2542
     18 O          68.8673   92.6988   14.4116 O.3     1  UNL1       -0.4561
     19 C          62.7166   84.8859   11.4367 C.3     1  UNL1        0.0559
     20 C          62.6369   83.9642   12.6175 C.ar    1  UNL1        0.0043
     21 C          62.5342   84.3798   14.0551 C.ar    1  UNL1        0.0966
     22 N          62.4798   83.1375   14.8939 N.ar    1  UNL1       -0.2273
     23 C          62.5488   81.9541   13.9748 C.ar    1  UNL1        0.1402
     24 N          62.5358   80.4773   14.2372 N.ar    1  UNL1       -0.3377
     25 C          62.6199   79.5115   13.0927 C.ar    1  UNL1        0.0691
     26 C          62.7170   80.0224   11.6857 C.ar    1  UNL1       -0.0047
     27 C          62.8011   79.0564   10.5412 C.3     1  UNL1        0.0326
     28 C          62.7301   81.4992   11.4233 C.ar    1  UNL1       -0.0001
     29 C          62.6459   82.4650   12.5678 C.ar    1  UNL1        0.0315
     30 H          62.4720   80.1420   15.1607 H       1  UNL1        0.1674
@<TRIPOS>BOND
     1    17    18    1
     2    18    11    1
     3    11    12   ar
     4    12    13   ar
     5    13    14   ar
     6    14    10    1
     7    10     8    1
     8     8     1    1
     9     1     2   ar
    10     2     3   ar
    11     3     4   ar
    12     4    19    1
    13    19    20    1
    14    20    21   ar
    15    21    22   ar
    16    22    23   ar
    17    23    24   ar
    18    24    25   ar
    19    25    26   ar
    20    26    27    1
    21    26    28   ar
    22    28    29   ar
    23     4     5   ar
    24     5     6   ar
    25     6     7    1
    26    14    15   ar
    27    15    16   ar
    28    16    11   ar
    29     6     1   ar
    30    29    20   ar
    31    29    23    1
    32     8     9    1
    33    24    30    1
@<TRIPOS>MOLECULE
*****
 30 33 0 0 0
SMALL
GASTEIGER

@<TRIPOS>ATOM
      1 C          62.3759   89.6851   12.0843 C.ar    1  UNL1        0.1564
      2 N          63.0492   89.5684   13.4196 N.ar    1  UNL1       -0.2274
      3 C          64.2383   90.4257   13.7373 C.ar    1  UNL1        0.0965
      4 C          64.7541   91.3997   12.7198 C.ar    1  UNL1        0.0037
      5 C          64.0808   91.5164   11.3845 C.ar    1  UNL1        0.0301
      6 C          62.8917   90.6591   11.0668 C.ar    1  UNL1        0.1710
      7 F          62.2184   90.7758    9.7315 F       1  UNL1       -0.2012
      8 N          61.1867   88.8278   11.7664 N.pl3   1  UNL1       -0.3126
      9 H          60.4308   88.7820   12.3954 H       1  UNL1        0.1486
     10 C          61.1494   88.0404   10.4903 C.3     1  UNL1        0.1170
     11 C          63.4124   84.1640   10.1710 C.ar    1  UNL1        0.2250
     12 C          63.1215   84.9664    8.9375 C.ar    1  UNL1        0.0574
     13 C          62.3671   86.2585    9.0440 C.ar    1  UNL1        0.0037
     14 C          61.9037   86.7483   10.3839 C.ar    1  UNL1        0.0168
     15 C          62.1946   85.9459   11.6174 C.ar    1  UNL1        0.0994
     16 N          62.9490   84.6537   11.5110 N.ar    1  UNL1       -0.2104
     17 C          63.5425   81.5969   10.5491 C.3     1  UNL1        0.2542
     18 O          64.1668   82.8719   10.0647 O.3     1  UNL1       -0.4561
     19 C          65.9433   92.2570   13.0377 C.3     1  UNL1        0.0559
     20 C          66.2410   93.4663   12.2015 C.ar    1  UNL1        0.0043
     21 C          65.8221   94.8740   12.5065 C.ar    1  UNL1        0.0966
     22 N          66.3322   95.7577   11.4071 N.ar    1  UNL1       -0.2273
     23 C          67.0663   94.8963   10.4226 C.ar    1  UNL1        0.1402
     24 N          67.7787   95.2185    9.1426 N.ar    1  UNL1       -0.3377
     25 C          68.4348   94.1245    8.3536 C.ar    1  UNL1        0.0691
     26 C          68.3785   92.7083    8.8446 C.ar    1  UNL1       -0.0047
     27 C          69.0346   91.6142    8.0555 C.3     1  UNL1        0.0326
     28 C          67.6660   92.3861   10.1247 C.ar    1  UNL1       -0.0001
     29 C          67.0099   93.4801   10.9137 C.ar    1  UNL1        0.0315
     30 H          67.8157   96.1480    8.8203 H       1  UNL1        0.1674
@<TRIPOS>BOND
     1    17    18    1
     2    18    11    1
     3    11    12   ar
     4    12    13   ar
     5    13    14   ar
     6    14    10    1
     7    10     8    1
     8     8     1    1
     9     1     2   ar
    10     2     3   ar
    11     3     4   ar
    12     4    19    1
    13    19    20    1
    14    20    21   ar
    15    21    22   ar
    16    22    23   ar
    17    23    24   ar
    18    24    25   ar
    19    25    26   ar
    20    26    27    1
    21    26    28   ar
    22    28    29   ar
    23     4     5   ar
    24     5     6   ar
    25     6     7    1
    26    14    15   ar
    27    15    16   ar
    28    16    11   ar
    29     6     1   ar
    30    29    20   ar
    31    29    23    1
    32     8     9    1
    33    24    30    1
@<TRIPOS>MOLECULE
*****
 30 33 0 0 0
SMALL
GASTEIGER

@<TRIPOS>ATOM
      1 C          60.3875   86.4670    7.8621 C.ar    1  UNL1        0.1564
      2 N          61.2636   85.5817    7.0261 N.ar    1  UNL1       -0.2274
      3 C          62.4034   84.8407    7.6598 C.ar    1  UNL1        0.0965
      4 C          62.6673   84.9849    9.1293 C.ar    1  UNL1        0.0037
      5 C          61.7912   85.8701    9.9653 C.ar    1  UNL1        0.0301
      6 C          60.6514   86.6111    9.3317 C.ar    1  UNL1        0.1710
      7 F          59.7753   87.4964   10.1677 F       1  UNL1       -0.2012
      8 N          59.2476   87.2081    7.2286 N.pl3   1  UNL1       -0.3126
      9 H          58.6601   86.7502    6.5848 H       1  UNL1        0.1486
     10 C          59.0029   88.6467    7.5758 C.3     1  UNL1        0.1170
     11 C          59.1711   91.7960    4.3659 C.ar    1  UNL1        0.2250
     12 C          57.8503   91.3897    4.9495 C.ar    1  UNL1        0.0574
     13 C          57.7943   90.3399    6.0195 C.ar    1  UNL1        0.0037
     14 C          59.0590   89.6965    6.5058 C.ar    1  UNL1        0.0168
     15 C          60.3797   90.1028    5.9222 C.ar    1  UNL1        0.0994
     16 N          60.4358   91.1526    4.8523 N.ar    1  UNL1       -0.2104
     17 C          60.4966   93.0668    2.5279 C.3     1  UNL1        0.2542
     18 O          59.2272   92.8458    3.2960 O.3     1  UNL1       -0.4561
     19 C          63.8072   84.2437    9.7629 C.3     1  UNL1        0.0559
     20 C          63.5414   83.2503   10.8549 C.ar    1  UNL1        0.0043
     21 C          63.1986   81.8023   10.6653 C.ar    1  UNL1        0.0966
     22 N          63.0170   81.1876   12.0214 N.ar    1  UNL1       -0.2273
     23 C          63.2474   82.2556   13.0492 C.ar    1  UNL1        0.1402
     24 N          63.2040   82.2320   14.5483 N.ar    1  UNL1       -0.3377
     25 C          63.4847   83.4832   15.3265 C.ar    1  UNL1        0.0691
     26 C          63.8088   84.7580   14.6055 C.ar    1  UNL1       -0.0047
     27 C          64.0895   86.0093   15.3838 C.3     1  UNL1        0.0326
     28 C          63.8522   84.7817   13.1064 C.ar    1  UNL1       -0.0001
     29 C          63.5715   83.5305   12.3282 C.ar    1  UNL1        0.0315
     30 H          62.9913   81.3953   15.0215 H       1  UNL1        0.1674
@<TRIPOS>BOND
     1    17    18    1
     2    18    11    1
     3    11    12   ar
     4    12    13   ar
     5    13    14   ar
     6    14    10    1
     7    10     8    1
     8     8     1    1
     9     1     2   ar
    10     2     3   ar
    11     3     4   ar
    12     4    19    1
    13    19    20    1
    14    20    21   ar
    15    21    22   ar
    16    22    23   ar
    17    23    24   ar
    18    24    25   ar
    19    25    26   ar
    20    26    27    1
    21    26    28   ar
    22    28    29   ar
    23     4     5   ar
    24     5     6   ar
    25     6     7    1
    26    14    15   ar
    27    15    16   ar
    28    16    11   ar
    29     6     1   ar
    30    29    20   ar
    31    29    23    1
    32     8     9    1
    33    24    30    1
