@<TRIPOS>MOLECULE
*****
 48 52 0 0 0
SMALL
GASTEIGER

@<TRIPOS>ATOM
      1 O          60.5980   88.2425   11.9102 O.3     1  UNL1       -0.4516
      2 C          60.6756   86.7356    8.5515 C.3     1  UNL1        0.0468
      3 C          59.6864   87.0675    6.7302 C.3     1  UNL1        0.0069
      4 C          60.6846   87.1027    9.4430 C.3     1  UNL1        0.0500
      5 C          61.1668   86.9090   10.2554 C.3     1  UNL1        0.1694
      6 C          62.0326   86.3362   11.1819 C.3     1  UNL1        0.0435
      7 C          62.4461   86.4822   12.6164 C.3     1  UNL1        0.0040
      8 C          61.9497   86.0963   10.3961 C.3     1  UNL1        0.0038
      9 C          60.2830   88.0724   10.6780 C.3     1  UNL1        0.0001
     10 C          61.8569   85.8540    9.5787 C.3     1  UNL1        0.0001
     11 C          62.2769   85.2854    9.3406 C.3     1  UNL1        0.0005
     12 C          62.7491   84.6563    9.0971 C.3     1  UNL1        0.0093
     13 C          63.7403   83.5315    9.0489 C.3     1  UNL1        0.0082
     14 C          64.3668   83.4075   10.4061 C.3     1  UNL1        0.0645
     15 C          63.7628   84.4555   11.2931 C.2     1  UNL1        0.1504
     16 O          64.0995   84.6905   12.7358 O.2     1  UNL1       -0.2961
     17 C          62.7630   85.2274   10.4840 C.3     1  UNL1        0.0610
     18 C          61.8180   85.3819    8.3600 C.3     1  UNL1        0.0276
     19 C          62.3868   84.0484    6.7051 C.3     1  UNL1        0.0025
     20 C          61.1452   86.0228    8.1028 C.3     1  UNL1        0.1141
     21 O          60.5388   85.8086    5.9989 O.3     1  UNL1       -0.3841
     22 H          59.8633   86.4720    5.7880 H       1  UNL1        0.2103
     23 C          59.3212   89.5772    7.5834 C.2     1  UNL1       -0.0048
     24 C          59.2144   88.1744    8.1039 C.2     1  UNL1       -0.0243
     25 C          60.5900   89.7286   11.7071 C.2     1  UNL1        0.3283
     26 O          59.2887   90.4555   11.5387 O.2     1  UNL1       -0.2491
     27 C          61.8831   90.4879   11.6723 C.3     1  UNL1        0.1715
     28 S          63.1211   89.8886   12.2710 S.3     1  UNL1       -0.1006
     29 C          64.1926   90.7795   12.8261 C.ar    1  UNL1        0.0392
     30 C          64.6633   91.9665   12.0390 C.ar    1  UNL1        0.0074
     31 C          65.7349   92.8573   12.5941 C.ar    1  UNL1        0.0006
     32 C          66.3358   92.5612   13.9363 C.ar    1  UNL1        0.0013
     33 C          65.8651   91.3742   14.7233 C.ar    1  UNL1        0.0152
     34 C          64.7935   90.4833   14.1682 C.ar    1  UNL1        0.0561
     35 N          64.3227   89.2962   14.9552 N.am    1  UNL1       -0.2819
     36 C          63.4940   89.4955   16.1895 C.2     1  UNL1        0.2511
     37 O          63.1360   90.8818   16.6368 O.2     1  UNL1       -0.2726
     38 H          64.5577   88.3864   14.6617 H       1  UNL1        0.1549
     39 C          63.0233   88.3086   16.9765 C.3     1  UNL1        0.2139
     40 N          63.2492   86.9222   16.4502 N.ar    1  UNL1       -0.2211
     41 C          62.3043   85.7645   16.5811 C.ar    1  UNL1        0.1151
     42 C          62.9308   84.5770   15.9124 C.ar    1  UNL1        0.1170
     43 N          64.2628   85.0007   15.3682 N.ar    1  UNL1       -0.1317
     44 N          64.4596   86.4500   15.7006 N.ar    1  UNL1       -0.0636
     45 C          62.3305   83.2064   15.8065 C.3     1  UNL1        0.1223
     46 N          62.6944   82.3151   14.6562 N.3     1  UNL1       -0.2651
     47 C          61.6164   81.6543   13.8492 C.3     1  UNL1        0.0900
     48 C          64.1363   82.0847   14.3130 C.3     1  UNL1        0.0900
@<TRIPOS>BOND
     1    23    24    2
     2    24     2    1
     3     2     3    1
     4     2     4    1
     5     4     5    1
     6     5     1    1
     7     1    25    1
     8    25    26    2
     9    25    27    1
    10    27    28    1
    11    28    29    1
    12    29    30   ar
    13    30    31   ar
    14    31    32   ar
    15    32    33   ar
    16    33    34   ar
    17    34    35    1
    18    35    36   am
    19    36    37    2
    20    36    39    1
    21    39    40    1
    22    40    41   ar
    23    41    42   ar
    24    42    45    1
    25    45    46    1
    26    46    47    1
    27    46    48    1
    28    42    43   ar
    29    43    44   ar
    30     5     6    1
    31     6     7    1
    32     6     8    1
    33     8     9    1
    34     8    10    1
    35    10    11    1
    36    12    11    1
    37    12    13    1
    38    13    14    1
    39    14    15    1
    40    15    16    2
    41    17    15    1
    42    12    18    1
    43    18    19    1
    44    18    20    1
    45    20    21    1
    46    20     2    1
    47    34    29   ar
    48    44    40   ar
    49    17     6    1
    50    17    12    1
    51    35    38    1
    52    21    22    1
@<TRIPOS>MOLECULE
*****
 48 52 0 0 0
SMALL
GASTEIGER

@<TRIPOS>ATOM
      1 O          63.2419   89.0467   15.3368 O.3     1  UNL1       -0.4516
      2 C          63.5214   90.6639   12.0407 C.3     1  UNL1        0.0468
      3 C          62.6658   90.3756   10.1458 C.3     1  UNL1        0.0069
      4 C          63.4761   90.2680   12.9187 C.3     1  UNL1        0.0500
      5 C          63.8977   90.4429   13.7682 C.3     1  UNL1        0.1694
      6 C          64.6872   90.9992   14.7699 C.3     1  UNL1        0.0435
      7 C          65.0040   90.8131   16.2243 C.3     1  UNL1        0.0040
      8 C          64.6539   91.2633   13.9883 C.3     1  UNL1        0.0038
      9 C          63.0089   89.2519   14.0917 C.3     1  UNL1        0.0001
     10 C          64.6128   91.5307   13.1745 C.3     1  UNL1        0.0001
     11 C          65.0374   92.1137   12.9840 C.3     1  UNL1        0.0005
     12 C          65.5134   92.7581   12.7937 C.3     1  UNL1        0.0093
     13 C          66.4844   93.8999   12.8496 C.3     1  UNL1        0.0082
     14 C          67.0140   93.9898   14.2502 C.3     1  UNL1        0.0645
     15 C          66.3703   92.9034   15.0598 C.2     1  UNL1        0.1504
     16 O          66.6116   92.6269   16.5141 O.2     1  UNL1       -0.2961
     17 C          65.4428   92.1421   14.1596 C.3     1  UNL1        0.0610
     18 C          64.6488   92.0418   11.9715 C.3     1  UNL1        0.0276
     19 C          65.3047   93.4380   10.4028 C.3     1  UNL1        0.0025
     20 C          64.0072   91.3987   11.6483 C.3     1  UNL1        0.1141
     21 O          63.5426   91.6717    9.5153 O.3     1  UNL1       -0.3841
     22 H          62.8956   91.0045    9.2374 H       1  UNL1        0.2103
     23 C          62.2629   87.7527   11.1535 C.2     1  UNL1       -0.0048
     24 C          62.1214   89.2167   11.4480 C.2     1  UNL1       -0.0243
     25 C          63.5618   87.5858   15.2222 C.2     1  UNL1        0.3283
     26 O          63.5838   86.7243   16.4500 O.2     1  UNL1       -0.2491
     27 C          63.8598   86.9862   13.8800 C.3     1  UNL1        0.1715
     28 S          64.5197   85.6422   13.7887 S.3     1  UNL1       -0.1006
     29 C          63.6954   84.3933   13.8935 C.ar    1  UNL1        0.0392
     30 C          63.5939   83.6695   15.2033 C.ar    1  UNL1        0.0074
     31 C          62.7697   82.4206   15.3081 C.ar    1  UNL1        0.0006
     32 C          62.0470   81.8956   14.1030 C.ar    1  UNL1        0.0013
     33 C          62.1486   82.6194   12.7932 C.ar    1  UNL1        0.0152
     34 C          62.9728   83.8683   12.6884 C.ar    1  UNL1        0.0561
     35 N          63.0744   84.5922   11.3785 N.am    1  UNL1       -0.2819
     36 C          63.5738   83.8728   10.1607 C.2     1  UNL1        0.2511
     37 O          63.9715   82.4293   10.2528 O.2     1  UNL1       -0.2726
     38 H          62.8134   85.5396   11.3181 H       1  UNL1        0.1549
     39 C          63.6754   84.5966    8.8510 C.3     1  UNL1        0.2139
     40 N          62.4305   85.0261    8.1328 N.ar    1  UNL1       -0.2211
     41 C          61.4514   86.0593    8.6062 C.ar    1  UNL1        0.1151
     42 C          60.3620   86.1695    7.5812 C.ar    1  UNL1        0.1170
     43 N          60.6676   85.2045    6.4742 N.ar    1  UNL1       -0.1317
     44 N          61.9460   84.4978    6.8152 N.ar    1  UNL1       -0.0636
     45 C          59.1752   87.0842    7.6508 C.3     1  UNL1        0.1223
     46 N          59.3720   88.5711    7.6296 N.3     1  UNL1       -0.2651
     47 C          59.2010   89.3321    6.3483 C.3     1  UNL1        0.0900
     48 C          59.7398   89.2970    8.8897 C.3     1  UNL1        0.0900
@<TRIPOS>BOND
     1    23    24    2
     2    24     2    1
     3     2     3    1
     4     2     4    1
     5     4     5    1
     6     5     1    1
     7     1    25    1
     8    25    26    2
     9    25    27    1
    10    27    28    1
    11    28    29    1
    12    29    30   ar
    13    30    31   ar
    14    31    32   ar
    15    32    33   ar
    16    33    34   ar
    17    34    35    1
    18    35    36   am
    19    36    37    2
    20    36    39    1
    21    39    40    1
    22    40    41   ar
    23    41    42   ar
    24    42    45    1
    25    45    46    1
    26    46    47    1
    27    46    48    1
    28    42    43   ar
    29    43    44   ar
    30     5     6    1
    31     6     7    1
    32     6     8    1
    33     8     9    1
    34     8    10    1
    35    10    11    1
    36    12    11    1
    37    12    13    1
    38    13    14    1
    39    14    15    1
    40    15    16    2
    41    17    15    1
    42    12    18    1
    43    18    19    1
    44    18    20    1
    45    20    21    1
    46    20     2    1
    47    34    29   ar
    48    44    40   ar
    49    17     6    1
    50    17    12    1
    51    35    38    1
    52    21    22    1
@<TRIPOS>MOLECULE
*****
 48 52 0 0 0
SMALL
GASTEIGER

@<TRIPOS>ATOM
      1 O          63.5186   85.3348   10.8710 O.3     1  UNL1       -0.4516
      2 C          61.0967   86.3701    8.2982 C.3     1  UNL1        0.0468
      3 C          60.3662   85.5582    6.5057 C.3     1  UNL1        0.0069
      4 C          61.7229   86.1347    8.9925 C.3     1  UNL1        0.0500
      5 C          62.0255   86.5513    9.8078 C.3     1  UNL1        0.1694
      6 C          62.1922   87.4472   10.8594 C.3     1  UNL1        0.0435
      7 C          62.9742   87.5998   12.1303 C.3     1  UNL1        0.0040
      8 C          61.6826   87.5549   10.2185 C.3     1  UNL1        0.0038
      9 C          62.8243   85.2571    9.7948 C.3     1  UNL1        0.0001
     10 C          61.1564   87.6581    9.5493 C.3     1  UNL1        0.0001
     11 C          60.7503   88.2835    9.5266 C.3     1  UNL1        0.0005
     12 C          60.3110   88.9799    9.5198 C.3     1  UNL1        0.0093
     13 C          59.7167   90.3133    9.8644 C.3     1  UNL1        0.0082
     14 C          60.3235   90.7710   11.1575 C.3     1  UNL1        0.0645
     15 C          61.2930   89.7205   11.6121 C.2     1  UNL1        0.1504
     16 O          62.1241   89.7686   12.8599 O.2     1  UNL1       -0.2961
     17 C          61.2852   88.6135   10.6000 C.3     1  UNL1        0.0610
     18 C          60.3154   87.9446    8.5899 C.3     1  UNL1        0.0276
     19 C          58.8222   89.1612    7.5267 C.3     1  UNL1        0.0025
     20 C          60.5136   87.1199    8.1314 C.3     1  UNL1        0.1141
     21 O          59.3667   86.8962    6.2674 O.3     1  UNL1       -0.3841
     22 H          59.5991   86.0551    5.8437 H       1  UNL1        0.2103
     23 C          62.4744   84.2309    6.2074 C.2     1  UNL1       -0.0048
     24 C          61.6057   84.5483    7.3883 C.2     1  UNL1       -0.0243
     25 C          63.4296   83.8379   10.8353 C.2     1  UNL1        0.3283
     26 O          62.0906   83.1682   10.7418 O.2     1  UNL1       -0.2491
     27 C          64.6794   83.0106   10.8930 C.3     1  UNL1        0.1715
     28 S          64.8128   81.9236   11.9181 S.3     1  UNL1       -0.1006
     29 C          63.6362   81.5464   12.7687 C.ar    1  UNL1        0.0392
     30 C          62.7191   80.4423   12.3330 C.ar    1  UNL1        0.0074
     31 C          61.5425   80.0652   13.1837 C.ar    1  UNL1        0.0006
     32 C          61.2832   80.7921   14.4699 C.ar    1  UNL1        0.0013
     33 C          62.2003   81.8962   14.9055 C.ar    1  UNL1        0.0152
     34 C          63.3769   82.2734   14.0549 C.ar    1  UNL1        0.0561
     35 N          64.2941   83.3775   14.4905 N.am    1  UNL1       -0.2819
     36 C          63.8102   84.7973   14.4933 C.2     1  UNL1        0.2511
     37 O          62.4091   85.1130   14.0604 O.2     1  UNL1       -0.2726
     38 H          65.2137   83.1703   14.7746 H       1  UNL1        0.1549
     39 C          64.7273   85.9014   14.9288 C.3     1  UNL1        0.2139
     40 N          64.1580   87.1961   15.4284 N.ar    1  UNL1       -0.2211
     41 C          64.5573   88.5686   14.9737 C.ar    1  UNL1        0.1151
     42 C          63.7356   89.5664   15.7347 C.ar    1  UNL1        0.1170
     43 N          62.8284   88.8106   16.6598 N.ar    1  UNL1       -0.1317
     44 N          63.0895   87.3457   16.4705 N.ar    1  UNL1       -0.0636
     45 C          63.8082   91.0581   15.5951 C.3     1  UNL1        0.1223
     46 N          64.9513   91.6874   14.8551 N.3     1  UNL1       -0.2651
     47 C          66.0524   92.3672   15.6138 C.3     1  UNL1        0.0900
     48 C          64.9932   91.6368   13.3566 C.3     1  UNL1        0.0900
@<TRIPOS>BOND
     1    23    24    2
     2    24     2    1
     3     2     3    1
     4     2     4    1
     5     4     5    1
     6     5     1    1
     7     1    25    1
     8    25    26    2
     9    25    27    1
    10    27    28    1
    11    28    29    1
    12    29    30   ar
    13    30    31   ar
    14    31    32   ar
    15    32    33   ar
    16    33    34   ar
    17    34    35    1
    18    35    36   am
    19    36    37    2
    20    36    39    1
    21    39    40    1
    22    40    41   ar
    23    41    42   ar
    24    42    45    1
    25    45    46    1
    26    46    47    1
    27    46    48    1
    28    42    43   ar
    29    43    44   ar
    30     5     6    1
    31     6     7    1
    32     6     8    1
    33     8     9    1
    34     8    10    1
    35    10    11    1
    36    12    11    1
    37    12    13    1
    38    13    14    1
    39    14    15    1
    40    15    16    2
    41    17    15    1
    42    12    18    1
    43    18    19    1
    44    18    20    1
    45    20    21    1
    46    20     2    1
    47    34    29   ar
    48    44    40   ar
    49    17     6    1
    50    17    12    1
    51    35    38    1
    52    21    22    1
@<TRIPOS>MOLECULE
*****
 48 52 0 0 0
SMALL
GASTEIGER

@<TRIPOS>ATOM
      1 O          62.3261   89.5725   12.1435 O.3     1  UNL1       -0.4516
      2 C          64.1807   91.1178   14.9239 C.3     1  UNL1        0.0468
      3 C          64.1621   90.9597   17.0168 C.3     1  UNL1        0.0069
      4 C          63.7178   90.7362   14.1690 C.3     1  UNL1        0.0500
      5 C          63.7668   90.8462   13.2123 C.3     1  UNL1        0.1694
      6 C          64.1364   91.2768   11.9418 C.3     1  UNL1        0.0435
      7 C          63.7879   91.0481   10.5009 C.3     1  UNL1        0.0040
      8 C          64.4699   91.5407   12.6496 C.3     1  UNL1        0.0038
      9 C          62.6653   89.8077   13.3585 C.3     1  UNL1        0.0001
     10 C          64.8103   91.8089   13.3896 C.3     1  UNL1        0.0001
     11 C          65.3535   92.3188   13.3516 C.3     1  UNL1        0.0005
     12 C          65.9514   92.8814   13.2883 C.3     1  UNL1        0.0093
     13 C          66.9614   93.8598   12.7663 C.3     1  UNL1        0.0082
     14 C          66.8654   93.8707   11.2694 C.3     1  UNL1        0.0645
     15 C          65.7961   92.8991   10.8663 C.2     1  UNL1        0.1504
     16 O          65.3670   92.5927    9.4620 O.2     1  UNL1       -0.2961
     17 C          65.2311   92.2876   12.1141 C.3     1  UNL1        0.0610
     18 C          65.4167   92.3049   14.4365 C.3     1  UNL1        0.0276
     19 C          66.8574   93.5786   15.5053 C.3     1  UNL1        0.0025
     20 C          64.8845   91.7676   15.0347 C.3     1  UNL1        0.1141
     21 O          65.3957   92.1030   17.1480 O.3     1  UNL1       -0.3841
     22 H          64.8364   91.5430   17.7088 H       1  UNL1        0.2103
     23 C          63.0146   88.4351   16.4369 C.2     1  UNL1       -0.0048
     24 C          62.9662   89.9025   16.1296 C.2     1  UNL1       -0.0243
     25 C          60.8541   89.8243   12.2838 C.2     1  UNL1        0.3283
     26 O          60.2232   89.8454   13.6444 O.2     1  UNL1       -0.2491
     27 C          60.0130   90.0548   11.0634 C.3     1  UNL1        0.1715
     28 S          60.6077   89.8763    9.6979 S.3     1  UNL1       -0.1006
     29 C          60.3700   88.6059    8.9365 C.ar    1  UNL1        0.0392
     30 C          59.2963   88.5481    7.8908 C.ar    1  UNL1        0.0074
     31 C          59.0586   87.2778    7.1293 C.ar    1  UNL1        0.0006
     32 C          59.8947   86.0653    7.4138 C.ar    1  UNL1        0.0013
     33 C          60.9684   86.1231    8.4595 C.ar    1  UNL1        0.0152
     34 C          61.2061   87.3935    9.2209 C.ar    1  UNL1        0.0561
     35 N          62.2799   87.4514   10.2667 N.am    1  UNL1       -0.2819
     36 C          62.2953   86.4486   11.3822 C.2     1  UNL1        0.2511
     37 O          61.2369   85.3880   11.4518 O.2     1  UNL1       -0.2726
     38 H          62.9746   88.1475   10.2210 H       1  UNL1        0.1549
     39 C          63.3690   86.5065   12.4279 C.3     1  UNL1        0.2139
     40 N          63.6002   85.3316   13.3313 N.ar    1  UNL1       -0.2211
     41 C          63.2479   83.9050   13.0301 C.ar    1  UNL1        0.1151
     42 C          63.6543   83.0687   14.2071 C.ar    1  UNL1        0.1170
     43 N          64.2578   83.9784   15.2358 N.ar    1  UNL1       -0.1317
     44 N          64.2244   85.3769   14.6945 N.ar    1  UNL1       -0.0636
     45 C          63.4866   81.5834   14.3333 C.3     1  UNL1        0.1223
     46 N          62.4028   80.8833   13.5682 N.3     1  UNL1       -0.2651
     47 C          60.9957   80.8866   14.0879 C.3     1  UNL1        0.0900
     48 C          62.7262   80.1800   12.2833 C.3     1  UNL1        0.0900
@<TRIPOS>BOND
     1    23    24    2
     2    24     2    1
     3     2     3    1
     4     2     4    1
     5     4     5    1
     6     5     1    1
     7     1    25    1
     8    25    26    2
     9    25    27    1
    10    27    28    1
    11    28    29    1
    12    29    30   ar
    13    30    31   ar
    14    31    32   ar
    15    32    33   ar
    16    33    34   ar
    17    34    35    1
    18    35    36   am
    19    36    37    2
    20    36    39    1
    21    39    40    1
    22    40    41   ar
    23    41    42   ar
    24    42    45    1
    25    45    46    1
    26    46    47    1
    27    46    48    1
    28    42    43   ar
    29    43    44   ar
    30     5     6    1
    31     6     7    1
    32     6     8    1
    33     8     9    1
    34     8    10    1
    35    10    11    1
    36    12    11    1
    37    12    13    1
    38    13    14    1
    39    14    15    1
    40    15    16    2
    41    17    15    1
    42    12    18    1
    43    18    19    1
    44    18    20    1
    45    20    21    1
    46    20     2    1
    47    34    29   ar
    48    44    40   ar
    49    17     6    1
    50    17    12    1
    51    35    38    1
    52    21    22    1
@<TRIPOS>MOLECULE
*****
 48 52 0 0 0
SMALL
GASTEIGER

@<TRIPOS>ATOM
      1 O          61.7762   89.5958    9.3711 O.3     1  UNL1       -0.4516
      2 C          62.6132   86.7571   11.5617 C.3     1  UNL1        0.0468
      3 C          62.3388   84.6771   11.5002 C.3     1  UNL1        0.0069
      4 C          62.4119   87.5262   11.0160 C.3     1  UNL1        0.0500
      5 C          62.5633   88.4754   11.0930 C.3     1  UNL1        0.1694
      6 C          62.9589   89.7237   11.5635 C.3     1  UNL1        0.0435
      7 C          62.9168   91.1703   11.1690 C.3     1  UNL1        0.0040
      8 C          63.0834   89.0066   11.9536 C.3     1  UNL1        0.0038
      9 C          61.8407   88.3743    9.7586 C.3     1  UNL1        0.0001
     10 C          63.2082   88.2572   12.3514 C.3     1  UNL1        0.0001
     11 C          63.5603   88.2733   13.0089 C.3     1  UNL1        0.0005
     12 C          63.9505   88.3121   13.7329 C.3     1  UNL1        0.0093
     13 C          64.6618   88.7906   14.9638 C.3     1  UNL1        0.0082
     14 C          64.7881   90.2826   14.8756 C.3     1  UNL1        0.0645
     15 C          64.1550   90.7263   13.5902 C.2     1  UNL1        0.1504
     16 O          64.0568   92.1397   13.0975 O.2     1  UNL1       -0.2961
     17 C          63.6373   89.5084   12.8839 C.3     1  UNL1        0.0610
     18 C          63.4646   87.1920   13.0651 C.3     1  UNL1        0.0276
     19 C          64.2517   86.0716   14.7872 C.3     1  UNL1        0.0025
     20 C          63.0493   86.6187   12.4105 C.3     1  UNL1        0.1141
     21 O          63.1111   84.4971   12.9893 O.3     1  UNL1       -0.3841
     22 H          62.6831   83.9621   12.3026 H       1  UNL1        0.2103
     23 C          62.0382   85.3646    8.6332 C.2     1  UNL1       -0.0048
     24 C          61.6855   85.6072   10.0708 C.2     1  UNL1       -0.0243
     25 C          60.2963   89.6728    9.1393 C.2     1  UNL1        0.3283
     26 O          59.4404   90.5215   10.0321 O.2     1  UNL1       -0.2491
     27 C          59.6721   88.9011    8.0147 C.3     1  UNL1        0.1715
     28 S          59.9490   89.2911    6.5930 S.3     1  UNL1       -0.1006
     29 C          59.0016   90.1990    5.8661 C.ar    1  UNL1        0.0392
     30 C          57.5239   90.0782    6.0937 C.ar    1  UNL1        0.0074
     31 C          56.5766   90.9861    5.3668 C.ar    1  UNL1        0.0006
     32 C          57.1069   92.0147    4.4126 C.ar    1  UNL1        0.0013
     33 C          58.5846   92.1355    4.1850 C.ar    1  UNL1        0.0152
     34 C          59.5320   91.2276    4.9119 C.ar    1  UNL1        0.0561
     35 N          61.0098   91.3483    4.6844 N.am    1  UNL1       -0.2819
     36 C          61.5258   91.9680    3.4196 C.2     1  UNL1        0.2511
     37 O          60.5640   92.4669    2.3822 O.2     1  UNL1       -0.2726
     38 H          61.6410   91.0209    5.3652 H       1  UNL1        0.1549
     39 C          63.0034   92.0887    3.1921 C.3     1  UNL1        0.2139
     40 N          63.5286   93.0521    2.1693 N.ar    1  UNL1       -0.2211
     41 C          63.3767   92.9288    0.6820 C.ar    1  UNL1        0.1151
     42 C          64.0521   94.1083    0.0478 C.ar    1  UNL1        0.1170
     43 N          64.6214   94.9607    1.1429 N.ar    1  UNL1       -0.1317
     44 N          64.2979   94.3079    2.4540 N.ar    1  UNL1       -0.0636
     45 C          64.1423   94.3867   -1.4234 C.3     1  UNL1        0.1223
     46 N          63.0951   93.8501   -2.3539 N.3     1  UNL1       -0.2651
     47 C          63.4866   92.9337   -3.4751 C.3     1  UNL1        0.0900
     48 C          61.6566   94.2300   -2.1631 C.3     1  UNL1        0.0900
@<TRIPOS>BOND
     1    23    24    2
     2    24     2    1
     3     2     3    1
     4     2     4    1
     5     4     5    1
     6     5     1    1
     7     1    25    1
     8    25    26    2
     9    25    27    1
    10    27    28    1
    11    28    29    1
    12    29    30   ar
    13    30    31   ar
    14    31    32   ar
    15    32    33   ar
    16    33    34   ar
    17    34    35    1
    18    35    36   am
    19    36    37    2
    20    36    39    1
    21    39    40    1
    22    40    41   ar
    23    41    42   ar
    24    42    45    1
    25    45    46    1
    26    46    47    1
    27    46    48    1
    28    42    43   ar
    29    43    44   ar
    30     5     6    1
    31     6     7    1
    32     6     8    1
    33     8     9    1
    34     8    10    1
    35    10    11    1
    36    12    11    1
    37    12    13    1
    38    13    14    1
    39    14    15    1
    40    15    16    2
    41    17    15    1
    42    12    18    1
    43    18    19    1
    44    18    20    1
    45    20    21    1
    46    20     2    1
    47    34    29   ar
    48    44    40   ar
    49    17     6    1
    50    17    12    1
    51    35    38    1
    52    21    22    1
@<TRIPOS>MOLECULE
*****
 48 52 0 0 0
SMALL
GASTEIGER

@<TRIPOS>ATOM
      1 O          62.8380   86.1257   12.6969 O.3     1  UNL1       -0.4516
      2 C          62.1049   85.4695    9.1488 C.3     1  UNL1        0.0468
      3 C          62.5469   83.9422    7.7784 C.3     1  UNL1        0.0069
      4 C          62.2755   85.6773   10.0747 C.3     1  UNL1        0.0500
      5 C          62.0450   86.4051   10.6639 C.3     1  UNL1        0.1694
      6 C          61.5251   87.5939   11.1664 C.3     1  UNL1        0.0435
      7 C          61.4746   88.3815   12.4420 C.3     1  UNL1        0.0040
      8 C          61.4358   87.3256   10.3905 C.3     1  UNL1        0.0038
      9 C          62.8487   85.4947   11.5797 C.3     1  UNL1        0.0001
     10 C          61.3483   87.0391    9.5870 C.3     1  UNL1        0.0001
     11 C          60.9590   87.4634    9.1128 C.3     1  UNL1        0.0005
     12 C          60.5261   87.9458    8.6051 C.3     1  UNL1        0.0093
     13 C          59.7096   89.0612    8.0225 C.3     1  UNL1        0.0082
     14 C          59.4704   90.0737    9.1031 C.3     1  UNL1        0.0645
     15 C          60.1389   89.5841   10.3534 C.2     1  UNL1        0.1504
     16 O          60.1526   90.2863   11.6788 O.2     1  UNL1       -0.2961
     17 C          60.7914   88.2690   10.0456 C.3     1  UNL1        0.0610
     18 C          61.1369   86.7249    8.3355 C.3     1  UNL1        0.0276
     19 C          60.3439   87.0042    6.3024 C.3     1  UNL1        0.0025
     20 C          61.6333   85.9035    8.4283 C.3     1  UNL1        0.1141
     21 O          61.7073   84.7484    6.5573 O.3     1  UNL1       -0.3841
     22 H          62.2150   83.9343    6.6998 H       1  UNL1        0.2103
     23 C          64.5153   83.4628   10.1532 C.2     1  UNL1       -0.0048
     24 C          63.2051   83.7104    9.4661 C.2     1  UNL1       -0.0243
     25 C          63.2155   84.7543   13.1729 C.2     1  UNL1        0.3283
     26 O          62.3090   83.5903   12.9016 O.2     1  UNL1       -0.2491
     27 C          64.4993   84.5467   13.9202 C.3     1  UNL1        0.1715
     28 S          65.1069   85.6777   14.6960 S.3     1  UNL1       -0.1006
     29 C          64.2763   86.4402   15.6852 C.ar    1  UNL1        0.0392
     30 C          63.7886   85.7655   16.9330 C.ar    1  UNL1        0.0074
     31 C          62.9579   86.5281   17.9222 C.ar    1  UNL1        0.0006
     32 C          62.6150   87.9653   17.6636 C.ar    1  UNL1        0.0013
     33 C          63.1027   88.6400   16.4159 C.ar    1  UNL1        0.0152
     34 C          63.9333   87.8775   15.4266 C.ar    1  UNL1        0.0561
     35 N          64.4211   88.5521   14.1788 N.am    1  UNL1       -0.2819
     36 C          64.0161   89.9659   13.8833 C.2     1  UNL1        0.2511
     37 O          63.1234   90.7049   14.8356 O.2     1  UNL1       -0.2726
     38 H          65.0070   88.0670   13.5538 H       1  UNL1        0.1549
     39 C          64.5038   90.6405   12.6356 C.3     1  UNL1        0.2139
     40 N          65.1542   91.9897   12.7177 N.ar    1  UNL1       -0.2211
     41 C          65.3917   92.9253   11.5696 C.ar    1  UNL1        0.1151
     42 C          66.0656   94.1539   12.1046 C.ar    1  UNL1        0.1170
     43 N          66.2446   93.9776   13.5835 N.ar    1  UNL1       -0.1317
     44 N          65.6814   92.6401   13.9624 N.ar    1  UNL1       -0.0636
     45 C          66.4867   95.3490   11.3018 C.3     1  UNL1        0.1223
     46 N          67.1023   95.1631    9.9466 N.3     1  UNL1       -0.2651
     47 C          68.0015   93.9912    9.6856 C.3     1  UNL1        0.0900
     48 C          66.8186   96.1492    8.8524 C.3     1  UNL1        0.0900
@<TRIPOS>BOND
     1    23    24    2
     2    24     2    1
     3     2     3    1
     4     2     4    1
     5     4     5    1
     6     5     1    1
     7     1    25    1
     8    25    26    2
     9    25    27    1
    10    27    28    1
    11    28    29    1
    12    29    30   ar
    13    30    31   ar
    14    31    32   ar
    15    32    33   ar
    16    33    34   ar
    17    34    35    1
    18    35    36   am
    19    36    37    2
    20    36    39    1
    21    39    40    1
    22    40    41   ar
    23    41    42   ar
    24    42    45    1
    25    45    46    1
    26    46    47    1
    27    46    48    1
    28    42    43   ar
    29    43    44   ar
    30     5     6    1
    31     6     7    1
    32     6     8    1
    33     8     9    1
    34     8    10    1
    35    10    11    1
    36    12    11    1
    37    12    13    1
    38    13    14    1
    39    14    15    1
    40    15    16    2
    41    17    15    1
    42    12    18    1
    43    18    19    1
    44    18    20    1
    45    20    21    1
    46    20     2    1
    47    34    29   ar
    48    44    40   ar
    49    17     6    1
    50    17    12    1
    51    35    38    1
    52    21    22    1
@<TRIPOS>MOLECULE
*****
 48 52 0 0 0
SMALL
GASTEIGER

@<TRIPOS>ATOM
      1 O          62.1909   89.5680   11.8088 O.3     1  UNL1       -0.4516
      2 C          63.8108   90.7441   14.8991 C.3     1  UNL1        0.0468
      3 C          63.5913   90.3639   16.9517 C.3     1  UNL1        0.0069
      4 C          63.4122   90.4611   14.0680 C.3     1  UNL1        0.0500
      5 C          63.5538   90.6711   13.1375 C.3     1  UNL1        0.1694
      6 C          64.0514   91.2225   11.9609 C.3     1  UNL1        0.0435
      7 C          63.8350   91.1610   10.4778 C.3     1  UNL1        0.0040
      8 C          64.3229   91.3979   12.7208 C.3     1  UNL1        0.0038
      9 C          62.4194   89.6604   13.0680 C.3     1  UNL1        0.0001
     10 C          64.5981   91.5738   13.5136 C.3     1  UNL1        0.0001
     11 C          65.1543   92.0664   13.5813 C.3     1  UNL1        0.0005
     12 C          65.7684   92.6122   13.6349 C.3     1  UNL1        0.0093
     13 C          66.8458   93.6065   13.3174 C.3     1  UNL1        0.0082
     14 C          66.8916   93.7806   11.8283 C.3     1  UNL1        0.0645
     15 C          65.8426   92.8940   11.2254 C.2     1  UNL1        0.1504
     16 O          65.5407   92.7541    9.7628 O.2     1  UNL1       -0.2961
     17 C          65.1484   92.1719   12.3420 C.3     1  UNL1        0.0610
     18 C          65.1146   91.9345   14.6595 C.3     1  UNL1        0.0276
     19 C          66.4776   93.0377   15.9883 C.3     1  UNL1        0.0025
     20 C          64.5160   91.3545   15.1441 C.3     1  UNL1        0.1141
     21 O          64.8334   91.4447   17.3192 O.3     1  UNL1       -0.3841
     22 H          64.2108   90.8470   17.7619 H       1  UNL1        0.2103
     23 C          62.6604   88.1403   16.5551 C.2     1  UNL1       -0.0048
     24 C          62.4599   89.4482   15.8486 C.2     1  UNL1       -0.0243
     25 C          60.7122   89.8079   11.8844 C.2     1  UNL1        0.3283
     26 O          59.9663   89.5011   13.1491 O.2     1  UNL1       -0.2491
     27 C          59.9793   90.3547   10.6954 C.3     1  UNL1        0.1715
     28 S          60.4528   90.0322    9.3090 S.3     1  UNL1       -0.1006
     29 C          60.3503   88.6290    8.7888 C.ar    1  UNL1        0.0392
     30 C          61.1606   87.5348    9.4182 C.ar    1  UNL1        0.0074
     31 C          61.0581   86.1316    8.8980 C.ar    1  UNL1        0.0006
     32 C          60.1453   85.8227    7.7485 C.ar    1  UNL1        0.0013
     33 C          59.3350   86.9169    7.1191 C.ar    1  UNL1        0.0152
     34 C          59.4376   88.3201    7.6393 C.ar    1  UNL1        0.0561
     35 N          58.6273   89.4144    7.0100 N.am    1  UNL1       -0.2819
     36 C          59.2189   90.2501    5.9138 C.2     1  UNL1        0.2511
     37 O          60.6207   89.9914    5.4469 O.2     1  UNL1       -0.2726
     38 H          57.7072   89.5841    7.3164 H       1  UNL1        0.1549
     39 C          58.4087   91.3443    5.2844 C.3     1  UNL1        0.2139
     40 N          59.0364   92.2538    4.2701 N.ar    1  UNL1       -0.2211
     41 C          59.3920   91.8891    2.8592 C.ar    1  UNL1        0.1151
     42 C          59.9940   93.0976    2.2058 C.ar    1  UNL1        0.1170
     43 N          60.0106   94.2092    3.2128 N.ar    1  UNL1       -0.1317
     44 N          59.4187   93.6877    4.4886 N.ar    1  UNL1       -0.0636
     45 C          60.4921   93.1799    0.7933 C.3     1  UNL1        0.1223
     46 N          61.9580   93.3485    0.5235 N.3     1  UNL1       -0.2651
     47 C          62.4214   93.8643   -0.8066 C.3     1  UNL1        0.0900
     48 C          62.9605   93.0014    1.5840 C.3     1  UNL1        0.0900
@<TRIPOS>BOND
     1    23    24    2
     2    24     2    1
     3     2     3    1
     4     2     4    1
     5     4     5    1
     6     5     1    1
     7     1    25    1
     8    25    26    2
     9    25    27    1
    10    27    28    1
    11    28    29    1
    12    29    30   ar
    13    30    31   ar
    14    31    32   ar
    15    32    33   ar
    16    33    34   ar
    17    34    35    1
    18    35    36   am
    19    36    37    2
    20    36    39    1
    21    39    40    1
    22    40    41   ar
    23    41    42   ar
    24    42    45    1
    25    45    46    1
    26    46    47    1
    27    46    48    1
    28    42    43   ar
    29    43    44   ar
    30     5     6    1
    31     6     7    1
    32     6     8    1
    33     8     9    1
    34     8    10    1
    35    10    11    1
    36    12    11    1
    37    12    13    1
    38    13    14    1
    39    14    15    1
    40    15    16    2
    41    17    15    1
    42    12    18    1
    43    18    19    1
    44    18    20    1
    45    20    21    1
    46    20     2    1
    47    34    29   ar
    48    44    40   ar
    49    17     6    1
    50    17    12    1
    51    35    38    1
    52    21    22    1
@<TRIPOS>MOLECULE
*****
 48 52 0 0 0
SMALL
GASTEIGER

@<TRIPOS>ATOM
      1 O          61.4098   87.6938    9.0962 O.3     1  UNL1       -0.4516
      2 C          63.0832   88.9604   12.1216 C.3     1  UNL1        0.0468
      3 C          63.6037   90.8495   12.8741 C.3     1  UNL1        0.0069
      4 C          62.6501   88.5897   11.3440 C.3     1  UNL1        0.0500
      5 C          62.4333   87.6994   11.0436 C.3     1  UNL1        0.1694
      6 C          62.3046   86.3157   10.9730 C.3     1  UNL1        0.0435
      7 C          61.7574   85.2541   10.0654 C.3     1  UNL1        0.0040
      8 C          62.6581   86.7298   11.5938 C.3     1  UNL1        0.0038
      9 C          61.8949   88.5590    9.9103 C.3     1  UNL1        0.0001
     10 C          63.0235   87.1683   12.2339 C.3     1  UNL1        0.0001
     11 C          63.2976   86.7749   12.8053 C.3     1  UNL1        0.0005
     12 C          63.5940   86.3229   13.4264 C.3     1  UNL1        0.0093
     13 C          63.9894   85.1868   14.3225 C.3     1  UNL1        0.0082
     14 C          63.5601   83.9080   13.6664 C.3     1  UNL1        0.0645
     15 C          62.8993   84.2537   12.3650 C.2     1  UNL1        0.1504
     16 O          62.3193   83.2783   11.3841 O.2     1  UNL1       -0.2961
     17 C          62.9202   85.7462   12.2167 C.3     1  UNL1        0.0610
     18 C          63.6055   87.7060   13.2740 C.3     1  UNL1        0.0276
     19 C          64.6290   87.7116   15.2215 C.3     1  UNL1        0.0025
     20 C          63.4790   88.5943   12.9211 C.3     1  UNL1        0.1141
     21 O          64.2814   90.1513   14.2522 O.3     1  UNL1       -0.3841
     22 H          64.1313   91.0241   13.8563 H       1  UNL1        0.2103
     23 C          63.4004   91.5357   10.0935 C.2     1  UNL1       -0.0048
     24 C          62.7541   90.8448   11.2575 C.2     1  UNL1       -0.0243
     25 C          60.1301   88.4558    8.9192 C.2     1  UNL1        0.3283
     26 O          59.5293   89.1925   10.0795 O.2     1  UNL1       -0.2491
     27 C          59.4510   88.4811    7.5821 C.3     1  UNL1        0.1715
     28 S          59.9647   89.3803    6.4968 S.3     1  UNL1       -0.1006
     29 C          59.0225   90.2955    5.7724 C.ar    1  UNL1        0.0392
     30 C          57.5459   90.1985    6.0174 C.ar    1  UNL1        0.0074
     31 C          56.6037   91.1137    5.2930 C.ar    1  UNL1        0.0006
     32 C          57.1383   92.1259    4.3236 C.ar    1  UNL1        0.0013
     33 C          58.6149   92.2230    4.0786 C.ar    1  UNL1        0.0152
     34 C          59.5571   91.3078    4.8030 C.ar    1  UNL1        0.0561
     35 N          61.0338   91.4048    4.5581 N.am    1  UNL1       -0.2819
     36 C          61.5463   92.0891    3.3256 C.2     1  UNL1        0.2511
     37 O          60.5820   92.6765    2.3380 O.2     1  UNL1       -0.2726
     38 H          61.6667   91.0193    5.2063 H       1  UNL1        0.1549
     39 C          63.0229   92.1861    3.0806 C.3     1  UNL1        0.2139
     40 N          63.5496   93.1229    2.0342 N.ar    1  UNL1       -0.2211
     41 C          63.3172   93.0144    0.5562 C.ar    1  UNL1        0.1151
     42 C          64.0252   94.1570   -0.1094 C.ar    1  UNL1        0.1170
     43 N          64.6951   94.9717    0.9571 N.ar    1  UNL1       -0.1317
     44 N          64.4012   94.3326    2.2819 N.ar    1  UNL1       -0.0636
     45 C          64.0576   94.4359   -1.5829 C.3     1  UNL1        0.1223
     46 N          63.1173   93.7157   -2.5034 N.3     1  UNL1       -0.2651
     47 C          63.6501   92.7202   -3.4909 C.3     1  UNL1        0.0900
     48 C          61.6443   93.9911   -2.4363 C.3     1  UNL1        0.0900
@<TRIPOS>BOND
     1    23    24    2
     2    24     2    1
     3     2     3    1
     4     2     4    1
     5     4     5    1
     6     5     1    1
     7     1    25    1
     8    25    26    2
     9    25    27    1
    10    27    28    1
    11    28    29    1
    12    29    30   ar
    13    30    31   ar
    14    31    32   ar
    15    32    33   ar
    16    33    34   ar
    17    34    35    1
    18    35    36   am
    19    36    37    2
    20    36    39    1
    21    39    40    1
    22    40    41   ar
    23    41    42   ar
    24    42    45    1
    25    45    46    1
    26    46    47    1
    27    46    48    1
    28    42    43   ar
    29    43    44   ar
    30     5     6    1
    31     6     7    1
    32     6     8    1
    33     8     9    1
    34     8    10    1
    35    10    11    1
    36    12    11    1
    37    12    13    1
    38    13    14    1
    39    14    15    1
    40    15    16    2
    41    17    15    1
    42    12    18    1
    43    18    19    1
    44    18    20    1
    45    20    21    1
    46    20     2    1
    47    34    29   ar
    48    44    40   ar
    49    17     6    1
    50    17    12    1
    51    35    38    1
    52    21    22    1
@<TRIPOS>MOLECULE
*****
 48 52 0 0 0
SMALL
GASTEIGER

@<TRIPOS>ATOM
      1 O          63.6858   85.4167   11.0793 O.3     1  UNL1       -0.4516
      2 C          61.2266   86.2440    8.4667 C.3     1  UNL1        0.0468
      3 C          60.5851   85.3653    6.6716 C.3     1  UNL1        0.0069
      4 C          61.8596   86.0625    9.1710 C.3     1  UNL1        0.0500
      5 C          62.1182   86.5071    9.9867 C.3     1  UNL1        0.1694
      6 C          62.2012   87.4208   11.0329 C.3     1  UNL1        0.0435
      7 C          62.9519   87.6422   12.3125 C.3     1  UNL1        0.0040
      8 C          61.6937   87.4843   10.3846 C.3     1  UNL1        0.0038
      9 C          63.0141   85.2781    9.9948 C.3     1  UNL1        0.0001
     10 C          61.1702   87.5418    9.7078 C.3     1  UNL1        0.0001
     11 C          60.7177   88.1339    9.6746 C.3     1  UNL1        0.0005
     12 C          60.2263   88.7944    9.6563 C.3     1  UNL1        0.0093
     13 C          59.5266   90.0806    9.9821 C.3     1  UNL1        0.0082
     14 C          60.0789   90.5930   11.2792 C.3     1  UNL1        0.0645
     15 C          61.1199   89.6235   11.7550 C.2     1  UNL1        0.1504
     16 O          61.9279   89.7445   13.0130 O.2     1  UNL1       -0.2961
     17 C          61.2110   88.5119   10.7521 C.3     1  UNL1        0.0610
     18 C          60.3228   87.7558    8.7352 C.3     1  UNL1        0.0276
     19 C          58.7552   88.8462    7.6426 C.3     1  UNL1        0.0025
     20 C          60.5900   86.9455    8.2861 C.3     1  UNL1        0.1141
     21 O          59.4891   86.6207    6.4093 O.3     1  UNL1       -0.3841
     22 H          59.7912   85.7969    5.9956 H       1  UNL1        0.2103
     23 C          62.8175   84.2012    6.4315 C.2     1  UNL1       -0.0048
     24 C          61.8864   84.4602    7.5786 C.2     1  UNL1       -0.0243
     25 C          63.3090   84.4068   12.1223 C.2     1  UNL1        0.3283
     26 O          62.0997   83.5414   11.9260 O.2     1  UNL1       -0.2491
     27 C          64.1415   84.2622   13.3616 C.3     1  UNL1        0.1715
     28 S          64.5829   85.4818   14.1152 S.3     1  UNL1       -0.1006
     29 C          63.7685   85.9857   15.2696 C.ar    1  UNL1        0.0392
     30 C          62.7665   85.0858   15.9300 C.ar    1  UNL1        0.0074
     31 C          61.9521   85.5898   17.0845 C.ar    1  UNL1        0.0006
     32 C          62.1397   86.9936   17.5785 C.ar    1  UNL1        0.0013
     33 C          63.1417   87.8935   16.9181 C.ar    1  UNL1        0.0152
     34 C          63.9561   87.3896   15.7636 C.ar    1  UNL1        0.0561
     35 N          64.9582   88.2895   15.1032 N.am    1  UNL1       -0.2819
     36 C          64.7093   89.7671   15.0355 C.2     1  UNL1        0.2511
     37 O          63.4584   90.3449   15.6284 O.2     1  UNL1       -0.2726
     38 H          65.7792   87.9102   14.7141 H       1  UNL1        0.1549
     39 C          65.7113   90.6670   14.3751 C.3     1  UNL1        0.2139
     40 N          65.3440   91.4074   13.1234 N.ar    1  UNL1       -0.2211
     41 C          66.0093   92.6481   12.6055 C.ar    1  UNL1        0.1151
     42 C          65.3234   93.0447   11.3319 C.ar    1  UNL1        0.1170
     43 N          64.2342   92.0491   11.0625 N.ar    1  UNL1       -0.1317
     44 N          64.2470   91.0373   12.1697 N.ar    1  UNL1       -0.0636
     45 C          65.6665   94.2290   10.4776 C.3     1  UNL1        0.1223
     46 N          66.9408   94.2389    9.6862 N.3     1  UNL1       -0.2651
     47 C          67.7543   92.9851    9.5588 C.3     1  UNL1        0.0900
     48 C          67.4014   95.5026    9.0223 C.3     1  UNL1        0.0900
@<TRIPOS>BOND
     1    23    24    2
     2    24     2    1
     3     2     3    1
     4     2     4    1
     5     4     5    1
     6     5     1    1
     7     1    25    1
     8    25    26    2
     9    25    27    1
    10    27    28    1
    11    28    29    1
    12    29    30   ar
    13    30    31   ar
    14    31    32   ar
    15    32    33   ar
    16    33    34   ar
    17    34    35    1
    18    35    36   am
    19    36    37    2
    20    36    39    1
    21    39    40    1
    22    40    41   ar
    23    41    42   ar
    24    42    45    1
    25    45    46    1
    26    46    47    1
    27    46    48    1
    28    42    43   ar
    29    43    44   ar
    30     5     6    1
    31     6     7    1
    32     6     8    1
    33     8     9    1
    34     8    10    1
    35    10    11    1
    36    12    11    1
    37    12    13    1
    38    13    14    1
    39    14    15    1
    40    15    16    2
    41    17    15    1
    42    12    18    1
    43    18    19    1
    44    18    20    1
    45    20    21    1
    46    20     2    1
    47    34    29   ar
    48    44    40   ar
    49    17     6    1
    50    17    12    1
    51    35    38    1
    52    21    22    1
