@<TRIPOS>MOLECULE
*****
 37 40 0 0 0
SMALL
GASTEIGER

@<TRIPOS>ATOM
      1 C          60.2211   88.7713    7.7971 C.ar    1  UNL1        0.0479
      2 C          60.0109   87.2908    7.6798 C.ar    1  UNL1        0.0145
      3 C          60.3633   86.3901    8.8264 C.ar    1  UNL1        0.0013
      4 C          60.9258   86.9699   10.0902 C.ar    1  UNL1        0.0001
      5 C          61.1360   88.4505   10.2075 C.ar    1  UNL1        0.0013
      6 C          60.7836   89.3512    9.0609 C.ar    1  UNL1        0.0145
      7 N          59.8949   93.0872    2.4570 N.am    1  UNL1       -0.2791
      8 C          58.8118   92.3741    3.2109 C.2     1  UNL1        0.3045
      9 O          57.3763   92.5617    2.8181 O.2     1  UNL1       -0.2526
     10 N          59.1641   91.4734    4.3574 N.am    1  UNL1       -0.2607
     11 C          60.5995   91.2858    4.7501 C.3     1  UNL1        0.1164
     12 C          60.9519   90.3851    5.8967 C.3     1  UNL1        0.1124
     13 N          59.8688   89.6720    6.6506 N.pl3   1  UNL1       -0.3041
     14 C          58.4333   89.8596    6.2578 C.3     1  UNL1        0.1124
     15 C          58.0810   90.7603    5.1113 C.3     1  UNL1        0.1164
     16 H          60.8370   92.9641    2.7148 H       1  UNL1        0.1515
     17 C          59.5425   93.9879    1.3105 C.3     1  UNL1        0.2017
     18 C          59.0037   93.4056    0.0374 C.2     1  UNL1        0.3373
     19 O          59.6972   92.2424   -0.6078 O.2     1  UNL1       -0.2482
     20 O          57.7715   93.9864   -0.5905 O.3     1  UNL1       -0.4473
     21 C          55.5742   93.6723   -1.9407 C.3     1  UNL1        0.0513
     22 C          56.8387   93.1050   -1.3669 C.3     1  UNL1        0.2086
     23 C          61.2781   86.0692   11.2368 C.2     1  UNL1        0.0000
     24 C          62.2260   84.9255   11.0283 C.2     1  UNL1        0.0000
     25 C          62.5783   84.0248   12.1748 C.ar    1  UNL1        0.0006
     26 C          62.4597   82.5371   12.0238 C.ar    1  UNL1        0.0114
     27 C          62.8120   81.6364   13.1704 C.ar    1  UNL1        0.0574
     28 CL         62.6934   80.1488   13.0194 Cl      1  UNL1       -0.0823
     29 C          63.2830   82.2234   14.4680 C.ar    1  UNL1        0.0090
     30 C          63.4016   83.7111   14.6190 C.ar    1  UNL1        0.0013
     31 C          63.0492   84.6118   13.4724 C.ar    1  UNL1       -0.0023
     32 C          63.8725   84.2980   15.9165 C.3     1  UNL1        0.1344
     33 N          63.5976   85.7385   16.2317 N.ar    1  UNL1       -0.3036
     34 C          62.7993   86.2499   17.3942 C.ar    1  UNL1        0.0983
     35 C          62.7811   87.7481   17.3207 C.ar    1  UNL1        0.1193
     36 N          63.5680   88.1625   16.1128 N.ar    1  UNL1       -0.2223
     37 C          64.0726   86.9206   15.4398 C.ar    1  UNL1        0.1789
@<TRIPOS>BOND
     1    21    22    1
     2    22    20    1
     3    20    18    1
     4    18    19    2
     5    18    17    1
     6    17     7    1
     7     7     8   am
     8     8     9    2
     9     8    10   am
    10    10    11    1
    11    11    12    1
    12    12    13    1
    13    13     1    1
    14     1     2   ar
    15     2     3   ar
    16     3     4   ar
    17     4    23    1
    18    23    24    2
    19    24    25    1
    20    25    26   ar
    21    26    27   ar
    22    27    28    1
    23    27    29   ar
    24    29    30   ar
    25    30    32    1
    26    32    33    1
    27    33    34   ar
    28    34    35   ar
    29    35    36   ar
    30    36    37   ar
    31    30    31   ar
    32     4     5   ar
    33     5     6   ar
    34    13    14    1
    35    14    15    1
    36    15    10    1
    37     6     1   ar
    38    31    25   ar
    39    37    33   ar
    40     7    16    1
@<TRIPOS>MOLECULE
*****
 37 40 0 0 0
SMALL
GASTEIGER

@<TRIPOS>ATOM
      1 C          59.7569   92.2756    3.2041 C.ar    1  UNL1        0.0479
      2 C          60.9942   91.6147    3.7352 C.ar    1  UNL1        0.0145
      3 C          60.9206   90.7675    4.9708 C.ar    1  UNL1        0.0013
      4 C          59.6096   90.5812    5.6754 C.ar    1  UNL1        0.0001
      5 C          58.3722   91.2421    5.1443 C.ar    1  UNL1        0.0013
      6 C          58.4459   92.0893    3.9087 C.ar    1  UNL1        0.0145
      7 N          59.2147   95.3201   -2.9348 N.am    1  UNL1       -0.2791
      8 C          60.0515   95.6644   -1.7385 C.2     1  UNL1        0.3045
      9 O          60.9619   96.8558   -1.7778 O.2     1  UNL1       -0.2526
     10 N          59.9778   94.8172   -0.5029 N.am    1  UNL1       -0.2607
     11 C          59.0674   93.6258   -0.4635 C.3     1  UNL1        0.1164
     12 C          58.9937   92.7786    0.7721 C.3     1  UNL1        0.1124
     13 N          59.8305   93.1228    1.9684 N.pl3   1  UNL1       -0.3041
     14 C          60.7410   94.3142    1.9291 C.3     1  UNL1        0.1124
     15 C          60.8146   95.1614    0.6935 C.3     1  UNL1        0.1164
     16 H          58.6171   94.5382   -2.9090 H       1  UNL1        0.1515
     17 C          59.2883   96.1673   -4.1705 C.3     1  UNL1        0.2017
     18 C          60.2130   95.7850   -5.2880 C.2     1  UNL1        0.3373
     19 O          60.2601   96.6117   -6.5387 O.2     1  UNL1       -0.2482
     20 O          61.0907   94.5759   -5.1547 O.3     1  UNL1       -0.4473
     21 C          62.9286   93.4514   -3.7030 C.3     1  UNL1        0.0513
     22 C          62.3796   94.6650   -4.3927 C.3     1  UNL1        0.2086
     23 C          59.5359   89.7340    6.9110 C.2     1  UNL1        0.0000
     24 C          60.6736   89.7330    7.8887 C.2     1  UNL1        0.0000
     25 C          60.5999   88.8859    9.1243 C.ar    1  UNL1        0.0006
     26 C          59.8640   89.3843   10.3327 C.ar    1  UNL1        0.0114
     27 C          59.7904   88.5371   11.5683 C.ar    1  UNL1        0.0574
     28 CL         59.0545   89.0355   12.7767 Cl      1  UNL1       -0.0823
     29 C          60.4526   87.1915   11.5956 C.ar    1  UNL1        0.0090
     30 C          61.1885   86.6930   10.3873 C.ar    1  UNL1        0.0013
     31 C          61.2621   87.5402    9.1516 C.ar    1  UNL1       -0.0023
     32 C          61.8506   85.3474   10.4146 C.3     1  UNL1        0.1344
     33 N          62.5737   84.8923   11.6475 N.ar    1  UNL1       -0.3036
     34 C          62.8305   83.4685   12.0440 C.ar    1  UNL1        0.0983
     35 C          63.5825   83.4773   13.3419 C.ar    1  UNL1        0.1193
     36 N          63.7905   84.9064   13.7475 N.ar    1  UNL1       -0.2223
     37 C          63.1671   85.7808   12.7003 C.ar    1  UNL1        0.1789
@<TRIPOS>BOND
     1    21    22    1
     2    22    20    1
     3    20    18    1
     4    18    19    2
     5    18    17    1
     6    17     7    1
     7     7     8   am
     8     8     9    2
     9     8    10   am
    10    10    11    1
    11    11    12    1
    12    12    13    1
    13    13     1    1
    14     1     2   ar
    15     2     3   ar
    16     3     4   ar
    17     4    23    1
    18    23    24    2
    19    24    25    1
    20    25    26   ar
    21    26    27   ar
    22    27    28    1
    23    27    29   ar
    24    29    30   ar
    25    30    32    1
    26    32    33    1
    27    33    34   ar
    28    34    35   ar
    29    35    36   ar
    30    36    37   ar
    31    30    31   ar
    32     4     5   ar
    33     5     6   ar
    34    13    14    1
    35    14    15    1
    36    15    10    1
    37     6     1   ar
    38    31    25   ar
    39    37    33   ar
    40     7    16    1
@<TRIPOS>MOLECULE
*****
 37 40 0 0 0
SMALL
GASTEIGER

@<TRIPOS>ATOM
      1 C          60.2658   88.7614    7.7776 C.ar    1  UNL1        0.0479
      2 C          60.0641   87.2810    7.6449 C.ar    1  UNL1        0.0145
      3 C          60.3956   86.3731    8.7919 C.ar    1  UNL1        0.0013
      4 C          60.9287   86.9456   10.0718 C.ar    1  UNL1        0.0001
      5 C          61.1304   88.4260   10.2045 C.ar    1  UNL1        0.0013
      6 C          60.7990   89.3339    9.0574 C.ar    1  UNL1        0.0145
      7 N          60.0386   93.0901    2.4428 N.am    1  UNL1       -0.2791
      8 C          58.9401   92.3932    3.1893 C.2     1  UNL1        0.3045
      9 O          57.5100   92.6042    2.7887 O.2     1  UNL1       -0.2526
     10 N          59.2715   91.4853    4.3364 N.am    1  UNL1       -0.2607
     11 C          60.7015   91.2743    4.7369 C.3     1  UNL1        0.1164
     12 C          61.0330   90.3663    5.8840 C.3     1  UNL1        0.1124
     13 N          59.9344   89.6694    6.6305 N.pl3   1  UNL1       -0.3041
     14 C          58.5044   89.8804    6.2300 C.3     1  UNL1        0.1124
     15 C          58.1729   90.7883    5.0829 C.3     1  UNL1        0.1164
     16 H          60.9772   92.9517    2.7056 H       1  UNL1        0.1515
     17 C          59.7072   93.9981    1.2957 C.3     1  UNL1        0.2017
     18 C          60.6004   94.0417    0.0914 C.2     1  UNL1        0.3373
     19 O          60.2836   94.9690   -1.0442 O.2     1  UNL1       -0.2482
     20 O          61.8106   93.1580    0.0228 O.3     1  UNL1       -0.4473
     21 C          63.6831   92.7861    1.7849 C.3     1  UNL1        0.0513
     22 C          63.0941   93.5927    0.6658 C.3     1  UNL1        0.2086
     23 C          61.2601   86.0376   11.2188 C.2     1  UNL1        0.0000
     24 C          62.2370   84.9153   11.0290 C.2     1  UNL1        0.0000
     25 C          62.5684   84.0074   12.1761 C.ar    1  UNL1        0.0006
     26 C          62.4208   82.5223   12.0241 C.ar    1  UNL1        0.0114
     27 C          62.7523   81.6144   13.1711 C.ar    1  UNL1        0.0574
     28 CL         62.6047   80.1295   13.0192 Cl      1  UNL1       -0.0823
     29 C          63.2313   82.1915   14.4702 C.ar    1  UNL1        0.0090
     30 C          63.3789   83.6764   14.6222 C.ar    1  UNL1        0.0013
     31 C          63.0475   84.5843   13.4751 C.ar    1  UNL1       -0.0023
     32 C          63.8579   84.2534   15.9212 C.3     1  UNL1        0.1344
     33 N          63.5812   85.6903   16.2511 N.ar    1  UNL1       -0.3036
     34 C          62.7923   86.1892   17.4254 C.ar    1  UNL1        0.0983
     35 C          62.7683   87.6878   17.3647 C.ar    1  UNL1        0.1193
     36 N          63.5422   88.1150   16.1529 N.ar    1  UNL1       -0.2223
     37 C          64.0446   86.8805   15.4647 C.ar    1  UNL1        0.1789
@<TRIPOS>BOND
     1    21    22    1
     2    22    20    1
     3    20    18    1
     4    18    19    2
     5    18    17    1
     6    17     7    1
     7     7     8   am
     8     8     9    2
     9     8    10   am
    10    10    11    1
    11    11    12    1
    12    12    13    1
    13    13     1    1
    14     1     2   ar
    15     2     3   ar
    16     3     4   ar
    17     4    23    1
    18    23    24    2
    19    24    25    1
    20    25    26   ar
    21    26    27   ar
    22    27    28    1
    23    27    29   ar
    24    29    30   ar
    25    30    32    1
    26    32    33    1
    27    33    34   ar
    28    34    35   ar
    29    35    36   ar
    30    36    37   ar
    31    30    31   ar
    32     4     5   ar
    33     5     6   ar
    34    13    14    1
    35    14    15    1
    36    15    10    1
    37     6     1   ar
    38    31    25   ar
    39    37    33   ar
    40     7    16    1
@<TRIPOS>MOLECULE
*****
 37 40 0 0 0
SMALL
GASTEIGER

@<TRIPOS>ATOM
      1 C          60.3134   92.4124    2.9733 C.ar    1  UNL1        0.0479
      2 C          61.4671   91.6700    3.5797 C.ar    1  UNL1        0.0145
      3 C          61.2730   90.8851    4.8431 C.ar    1  UNL1        0.0013
      4 C          59.9252   90.8426    5.5001 C.ar    1  UNL1        0.0001
      5 C          58.7715   91.5850    4.8937 C.ar    1  UNL1        0.0013
      6 C          58.9656   92.3699    3.6303 C.ar    1  UNL1        0.0145
      7 N          62.4610   95.6956   -2.6710 N.am    1  UNL1       -0.2791
      8 C          61.0897   95.5522   -2.0803 C.2     1  UNL1        0.3045
      9 O          59.9125   96.1937   -2.7531 O.2     1  UNL1       -0.2526
     10 N          60.8956   94.7672   -0.8169 N.am    1  UNL1       -0.2607
     11 C          62.0728   94.1257   -0.1442 C.3     1  UNL1        0.1164
     12 C          61.8787   93.3408    1.1192 C.3     1  UNL1        0.1124
     13 N          60.5075   93.1974    1.7099 N.pl3   1  UNL1       -0.3041
     14 C          59.3303   93.8389    1.0372 C.3     1  UNL1        0.1124
     15 C          59.5243   94.6238   -0.2262 C.3     1  UNL1        0.1164
     16 H          63.2337   95.2745   -2.2295 H       1  UNL1        0.1515
     17 C          62.6551   96.4805   -3.9344 C.3     1  UNL1        0.2017
     18 C          63.1317   95.7924   -5.1792 C.2     1  UNL1        0.3373
     19 O          63.9186   96.5551   -6.2034 O.2     1  UNL1       -0.2482
     20 O          62.8214   94.3415   -5.3997 O.3     1  UNL1       -0.4473
     21 C          63.7479   92.6013   -3.7076 C.3     1  UNL1        0.0513
     22 C          63.8319   93.2946   -5.0351 C.3     1  UNL1        0.2086
     23 C          59.7311   90.0576    6.7636 C.2     1  UNL1        0.0000
     24 C          60.8838   89.8463    7.6998 C.2     1  UNL1        0.0000
     25 C          60.6898   89.0614    8.9632 C.ar    1  UNL1        0.0006
     26 C          59.9753   89.6799   10.1281 C.ar    1  UNL1        0.0114
     27 C          59.7812   88.8949   11.3915 C.ar    1  UNL1        0.0574
     28 CL         59.0667   89.5134   12.5565 Cl      1  UNL1       -0.0823
     29 C          60.3016   87.4915   11.4900 C.ar    1  UNL1        0.0090
     30 C          61.0160   86.8731   10.3251 C.ar    1  UNL1        0.0013
     31 C          61.2101   87.6580    9.0617 C.ar    1  UNL1       -0.0023
     32 C          61.5364   85.4697   10.4236 C.3     1  UNL1        0.1344
     33 N          62.3984   85.0692   11.5840 N.ar    1  UNL1       -0.3036
     34 C          62.6767   83.6649   12.0323 C.ar    1  UNL1        0.0983
     35 C          63.5838   83.7305   13.2252 C.ar    1  UNL1        0.1193
     36 N          63.8661   85.1750   13.5141 N.ar    1  UNL1       -0.2223
     37 C          63.1335   86.0024   12.4998 C.ar    1  UNL1        0.1789
@<TRIPOS>BOND
     1    21    22    1
     2    22    20    1
     3    20    18    1
     4    18    19    2
     5    18    17    1
     6    17     7    1
     7     7     8   am
     8     8     9    2
     9     8    10   am
    10    10    11    1
    11    11    12    1
    12    12    13    1
    13    13     1    1
    14     1     2   ar
    15     2     3   ar
    16     3     4   ar
    17     4    23    1
    18    23    24    2
    19    24    25    1
    20    25    26   ar
    21    26    27   ar
    22    27    28    1
    23    27    29   ar
    24    29    30   ar
    25    30    32    1
    26    32    33    1
    27    33    34   ar
    28    34    35   ar
    29    35    36   ar
    30    36    37   ar
    31    30    31   ar
    32     4     5   ar
    33     5     6   ar
    34    13    14    1
    35    14    15    1
    36    15    10    1
    37     6     1   ar
    38    31    25   ar
    39    37    33   ar
    40     7    16    1
@<TRIPOS>MOLECULE
*****
 37 40 0 0 0
SMALL
GASTEIGER

@<TRIPOS>ATOM
      1 C          60.0106   92.4692    2.4801 C.ar    1  UNL1        0.0479
      2 C          58.8634   92.3357    3.4372 C.ar    1  UNL1        0.0145
      3 C          59.0791   91.7118    4.7841 C.ar    1  UNL1        0.0013
      4 C          60.4420   91.2213    5.1739 C.ar    1  UNL1        0.0001
      5 C          61.5892   91.3547    4.2168 C.ar    1  UNL1        0.0013
      6 C          61.3735   91.9787    2.8699 C.ar    1  UNL1        0.0145
      7 N          59.0512   94.0989   -4.1285 N.am    1  UNL1       -0.2791
      8 C          59.1478   94.9649   -2.9076 C.2     1  UNL1        0.3045
      9 O          59.0288   96.4548   -3.0336 O.2     1  UNL1       -0.2526
     10 N          59.3635   94.3410   -1.5607 N.am    1  UNL1       -0.2607
     11 C          59.4826   92.8510   -1.4347 C.3     1  UNL1        0.1164
     12 C          59.6983   92.2271   -0.0878 C.3     1  UNL1        0.1124
     13 N          59.7949   93.0931    1.1332 N.pl3   1  UNL1       -0.3041
     14 C          59.6759   94.5830    1.0072 C.3     1  UNL1        0.1124
     15 C          59.4602   95.2069   -0.3398 C.3     1  UNL1        0.1164
     16 H          59.1293   93.1210   -4.0458 H       1  UNL1        0.1515
     17 C          58.8355   94.7228   -5.4754 C.3     1  UNL1        0.2017
     18 C          57.4421   94.9601   -5.9776 C.2     1  UNL1        0.3373
     19 O          57.0056   94.3697   -7.2857 O.2     1  UNL1       -0.2482
     20 O          56.4851   95.7876   -5.1718 O.3     1  UNL1       -0.4473
     21 C          55.5699   94.6053   -3.0471 C.3     1  UNL1        0.0513
     22 C          55.3566   95.1268   -4.4372 C.3     1  UNL1        0.2086
     23 C          60.6577   90.5974    6.5208 C.2     1  UNL1        0.0000
     24 C          59.8402   89.4107    6.9373 C.2     1  UNL1        0.0000
     25 C          60.0559   88.7867    8.2842 C.ar    1  UNL1        0.0006
     26 C          59.6902   89.5417    9.5277 C.ar    1  UNL1        0.0114
     27 C          59.9059   88.9178   10.8746 C.ar    1  UNL1        0.0574
     28 CL         59.5402   89.6727   12.1181 Cl      1  UNL1       -0.0823
     29 C          60.4873   87.5389   10.9780 C.ar    1  UNL1        0.0090
     30 C          60.8530   86.7840    9.7345 C.ar    1  UNL1        0.0013
     31 C          60.6373   87.4079    8.3876 C.ar    1  UNL1       -0.0023
     32 C          61.4343   85.4051    9.8379 C.3     1  UNL1        0.1344
     33 N          62.2732   85.0319   11.0241 N.ar    1  UNL1       -0.3036
     34 C          62.7320   83.6486   11.3794 C.ar    1  UNL1        0.0983
     35 C          63.5429   83.7382   12.6381 C.ar    1  UNL1        0.1193
     36 N          63.5854   85.1768   13.0608 N.ar    1  UNL1       -0.2223
     37 C          62.8006   85.9763   12.0633 C.ar    1  UNL1        0.1789
@<TRIPOS>BOND
     1    21    22    1
     2    22    20    1
     3    20    18    1
     4    18    19    2
     5    18    17    1
     6    17     7    1
     7     7     8   am
     8     8     9    2
     9     8    10   am
    10    10    11    1
    11    11    12    1
    12    12    13    1
    13    13     1    1
    14     1     2   ar
    15     2     3   ar
    16     3     4   ar
    17     4    23    1
    18    23    24    2
    19    24    25    1
    20    25    26   ar
    21    26    27   ar
    22    27    28    1
    23    27    29   ar
    24    29    30   ar
    25    30    32    1
    26    32    33    1
    27    33    34   ar
    28    34    35   ar
    29    35    36   ar
    30    36    37   ar
    31    30    31   ar
    32     4     5   ar
    33     5     6   ar
    34    13    14    1
    35    14    15    1
    36    15    10    1
    37     6     1   ar
    38    31    25   ar
    39    37    33   ar
    40     7    16    1
@<TRIPOS>MOLECULE
*****
 37 40 0 0 0
SMALL
GASTEIGER

@<TRIPOS>ATOM
      1 C          59.9228   92.2528    3.3112 C.ar    1  UNL1        0.0479
      2 C          61.1616   91.6403    3.8943 C.ar    1  UNL1        0.0145
      3 C          61.0788   90.8435    5.1625 C.ar    1  UNL1        0.0013
      4 C          59.7572   90.6593    5.8476 C.ar    1  UNL1        0.0001
      5 C          58.5184   91.2719    5.2645 C.ar    1  UNL1        0.0013
      6 C          58.6012   92.0686    3.9963 C.ar    1  UNL1        0.0145
      7 N          59.1739   95.3188   -2.7952 N.am    1  UNL1       -0.2791
      8 C          60.2540   95.4399   -1.7616 C.2     1  UNL1        0.3045
      9 O          61.4170   96.3577   -1.9961 O.2     1  UNL1       -0.2526
     10 N          60.1712   94.6431   -0.4934 N.am    1  UNL1       -0.2607
     11 C          59.0083   93.7253   -0.2589 C.3     1  UNL1        0.1164
     12 C          58.9255   92.9285    1.0093 C.3     1  UNL1        0.1124
     13 N          60.0056   93.0496    2.0430 N.pl3   1  UNL1       -0.3041
     14 C          61.1686   93.9674    1.8085 C.3     1  UNL1        0.1124
     15 C          61.2514   94.7642    0.5403 C.3     1  UNL1        0.1164
     16 H          58.4106   94.7164   -2.6413 H       1  UNL1        0.1515
     17 C          59.2567   96.1156   -4.0634 C.3     1  UNL1        0.2017
     18 C          58.7666   95.5261   -5.3528 C.2     1  UNL1        0.3373
     19 O          58.1520   96.4112   -6.3963 O.2     1  UNL1       -0.2482
     20 O          58.8912   94.0517   -5.5987 O.3     1  UNL1       -0.4473
     21 C          57.4060   92.4020   -4.2485 C.3     1  UNL1        0.0513
     22 C          57.6804   93.1711   -5.5068 C.3     1  UNL1        0.2086
     23 C          59.6744   89.8626    7.1158 C.2     1  UNL1        0.0000
     24 C          60.5778   90.1900    8.2676 C.2     1  UNL1        0.0000
     25 C          60.4950   89.3932    9.5358 C.ar    1  UNL1        0.0006
     26 C          59.4418   89.7129   10.5550 C.ar    1  UNL1        0.0114
     27 C          59.3590   88.9162   11.8232 C.ar    1  UNL1        0.0574
     28 CL         58.3059   89.2358   12.8423 Cl      1  UNL1       -0.0823
     29 C          60.3294   87.7997   12.0722 C.ar    1  UNL1        0.0090
     30 C          61.3825   87.4800   11.0530 C.ar    1  UNL1        0.0013
     31 C          61.4653   88.2768    9.7848 C.ar    1  UNL1       -0.0023
     32 C          62.3528   86.3636   11.3020 C.3     1  UNL1        0.1344
     33 N          62.7544   85.4544   10.1786 N.ar    1  UNL1       -0.3036
     34 C          62.5529   85.7183    8.7158 C.ar    1  UNL1        0.0983
     35 C          63.1020   84.5486    7.9539 C.ar    1  UNL1        0.1193
     36 N          63.6428   83.5619    8.9458 N.ar    1  UNL1       -0.2223
     37 C          63.4280   84.1217   10.3208 C.ar    1  UNL1        0.1789
@<TRIPOS>BOND
     1    21    22    1
     2    22    20    1
     3    20    18    1
     4    18    19    2
     5    18    17    1
     6    17     7    1
     7     7     8   am
     8     8     9    2
     9     8    10   am
    10    10    11    1
    11    11    12    1
    12    12    13    1
    13    13     1    1
    14     1     2   ar
    15     2     3   ar
    16     3     4   ar
    17     4    23    1
    18    23    24    2
    19    24    25    1
    20    25    26   ar
    21    26    27   ar
    22    27    28    1
    23    27    29   ar
    24    29    30   ar
    25    30    32    1
    26    32    33    1
    27    33    34   ar
    28    34    35   ar
    29    35    36   ar
    30    36    37   ar
    31    30    31   ar
    32     4     5   ar
    33     5     6   ar
    34    13    14    1
    35    14    15    1
    36    15    10    1
    37     6     1   ar
    38    31    25   ar
    39    37    33   ar
    40     7    16    1
@<TRIPOS>MOLECULE
*****
 37 40 0 0 0
SMALL
GASTEIGER

@<TRIPOS>ATOM
      1 C          60.3704   92.3704    2.9033 C.ar    1  UNL1        0.0479
      2 C          61.5218   91.5965    3.4736 C.ar    1  UNL1        0.0145
      3 C          61.3410   90.8017    4.7327 C.ar    1  UNL1        0.0013
      4 C          60.0087   90.7807    5.4216 C.ar    1  UNL1        0.0001
      5 C          58.8573   91.5545    4.8513 C.ar    1  UNL1        0.0013
      6 C          59.0381   92.3494    3.5921 C.ar    1  UNL1        0.0145
      7 N          61.9979   95.0425   -3.2173 N.am    1  UNL1       -0.2791
      8 C          61.0937   95.5499   -2.1334 C.2     1  UNL1        0.3045
      9 O          60.3703   96.8522   -2.3086 O.2     1  UNL1       -0.2526
     10 N          60.9128   94.7550   -0.8742 N.am    1  UNL1       -0.2607
     11 C          61.6362   93.4527   -0.6990 C.3     1  UNL1        0.1164
     12 C          61.4554   92.6579    0.5602 C.3     1  UNL1        0.1124
     13 N          60.5512   93.1653    1.6441 N.pl3   1  UNL1       -0.3041
     14 C          59.8278   94.4675    1.4689 C.3     1  UNL1        0.1124
     15 C          60.0087   95.2624    0.2097 C.3     1  UNL1        0.1164
     16 H          62.4727   94.1877   -3.1023 H       1  UNL1        0.1515
     17 C          62.1787   95.8374   -4.4764 C.3     1  UNL1        0.2017
     18 C          63.5542   96.0591   -5.0324 C.2     1  UNL1        0.3373
     19 O          63.7964   95.9326   -6.5072 O.2     1  UNL1       -0.2482
     20 O          64.6873   96.4074   -4.1134 O.3     1  UNL1       -0.4473
     21 C          65.3484   96.3117   -1.6026 C.3     1  UNL1        0.0513
     22 C          64.9029   95.6185   -2.8560 C.3     1  UNL1        0.2086
     23 C          59.8279   89.9858    6.6807 C.2     1  UNL1        0.0000
     24 C          60.5327   90.4015    7.9379 C.2     1  UNL1        0.0000
     25 C          60.3519   89.6067    9.1970 C.ar    1  UNL1        0.0006
     26 C          59.6075   90.1984   10.3572 C.ar    1  UNL1        0.0114
     27 C          59.4267   89.4036   11.6163 C.ar    1  UNL1        0.0574
     28 CL         58.6824   89.9953   12.7764 Cl      1  UNL1       -0.0823
     29 C          59.9902   88.0169   11.7153 C.ar    1  UNL1        0.0090
     30 C          60.7345   87.4252   10.5552 C.ar    1  UNL1        0.0013
     31 C          60.9153   88.2201    9.2961 C.ar    1  UNL1       -0.0023
     32 C          61.2980   86.0386   10.6543 C.3     1  UNL1        0.1344
     33 N          62.0124   85.4339    9.4822 N.ar    1  UNL1       -0.3036
     34 C          63.2475   84.5849    9.5447 C.ar    1  UNL1        0.0983
     35 C          63.6156   84.1982    8.1429 C.ar    1  UNL1        0.1193
     36 N          62.6080   84.8082    7.2140 N.ar    1  UNL1       -0.2223
     37 C          61.6172   85.5719    8.0418 C.ar    1  UNL1        0.1789
@<TRIPOS>BOND
     1    21    22    1
     2    22    20    1
     3    20    18    1
     4    18    19    2
     5    18    17    1
     6    17     7    1
     7     7     8   am
     8     8     9    2
     9     8    10   am
    10    10    11    1
    11    11    12    1
    12    12    13    1
    13    13     1    1
    14     1     2   ar
    15     2     3   ar
    16     3     4   ar
    17     4    23    1
    18    23    24    2
    19    24    25    1
    20    25    26   ar
    21    26    27   ar
    22    27    28    1
    23    27    29   ar
    24    29    30   ar
    25    30    32    1
    26    32    33    1
    27    33    34   ar
    28    34    35   ar
    29    35    36   ar
    30    36    37   ar
    31    30    31   ar
    32     4     5   ar
    33     5     6   ar
    34    13    14    1
    35    14    15    1
    36    15    10    1
    37     6     1   ar
    38    31    25   ar
    39    37    33   ar
    40     7    16    1
@<TRIPOS>MOLECULE
*****
 37 40 0 0 0
SMALL
GASTEIGER

@<TRIPOS>ATOM
      1 C          59.7150   92.3275    2.9122 C.ar    1  UNL1        0.0479
      2 C          61.0367   91.7455    3.3173 C.ar    1  UNL1        0.0145
      3 C          61.1335   90.8848    4.5420 C.ar    1  UNL1        0.0013
      4 C          59.9085   90.6062    5.3616 C.ar    1  UNL1        0.0001
      5 C          58.5868   91.1883    4.9565 C.ar    1  UNL1        0.0013
      6 C          58.4900   92.0490    3.7318 C.ar    1  UNL1        0.0145
      7 N          58.1727   95.6061   -2.9293 N.am    1  UNL1       -0.2791
      8 C          59.3279   95.7701   -1.9867 C.2     1  UNL1        0.3045
      9 O          60.3863   96.7948   -2.2688 O.2     1  UNL1       -0.2526
     10 N          59.4247   94.9095   -0.7620 N.am    1  UNL1       -0.2607
     11 C          58.3662   93.8848   -0.4798 C.3     1  UNL1        0.1164
     12 C          58.4630   93.0241    0.7449 C.3     1  UNL1        0.1124
     13 N          59.6182   93.1882    1.6875 N.pl3   1  UNL1       -0.3041
     14 C          60.6766   94.2129    1.4054 C.3     1  UNL1        0.1124
     15 C          60.5799   95.0735    0.1806 C.3     1  UNL1        0.1164
     16 H          57.4780   94.9335   -2.7441 H       1  UNL1        0.1515
     17 C          58.0759   96.4667   -4.1540 C.3     1  UNL1        0.2017
     18 C          57.3654   95.9586   -5.3735 C.2     1  UNL1        0.3373
     19 O          56.0665   96.5776   -5.7972 O.2     1  UNL1       -0.2482
     20 O          57.9540   94.8315   -6.1693 O.3     1  UNL1       -0.4473
     21 C          60.1563   94.2243   -7.4067 C.3     1  UNL1        0.0513
     22 C          59.4338   94.5878   -6.1434 C.3     1  UNL1        0.2086
     23 C          60.0053   89.7456    6.5863 C.2     1  UNL1        0.0000
     24 C          60.8262   90.1975    7.7576 C.2     1  UNL1        0.0000
     25 C          60.9230   89.3368    8.9823 C.ar    1  UNL1        0.0006
     26 C          60.8442   87.8440    8.8580 C.ar    1  UNL1        0.0114
     27 C          60.9410   86.9833   10.0827 C.ar    1  UNL1        0.0574
     28 CL         60.8622   85.4906    9.9586 Cl      1  UNL1       -0.0823
     29 C          61.1166   87.6155   11.4317 C.ar    1  UNL1        0.0090
     30 C          61.1954   89.1083   11.5559 C.ar    1  UNL1        0.0013
     31 C          61.0986   89.9689   10.3312 C.ar    1  UNL1       -0.0023
     32 C          61.3710   89.7403   12.9048 C.3     1  UNL1        0.1344
     33 N          62.7348   90.1655   13.3621 N.ar    1  UNL1       -0.3036
     34 C          63.8320   90.6967   12.4879 C.ar    1  UNL1        0.0983
     35 C          65.0163   90.9935   13.3594 C.ar    1  UNL1        0.1193
     36 N          64.6511   90.6458   14.7721 N.ar    1  UNL1       -0.2223
     37 C          63.2411   90.1340   14.7737 C.ar    1  UNL1        0.1789
@<TRIPOS>BOND
     1    21    22    1
     2    22    20    1
     3    20    18    1
     4    18    19    2
     5    18    17    1
     6    17     7    1
     7     7     8   am
     8     8     9    2
     9     8    10   am
    10    10    11    1
    11    11    12    1
    12    12    13    1
    13    13     1    1
    14     1     2   ar
    15     2     3   ar
    16     3     4   ar
    17     4    23    1
    18    23    24    2
    19    24    25    1
    20    25    26   ar
    21    26    27   ar
    22    27    28    1
    23    27    29   ar
    24    29    30   ar
    25    30    32    1
    26    32    33    1
    27    33    34   ar
    28    34    35   ar
    29    35    36   ar
    30    36    37   ar
    31    30    31   ar
    32     4     5   ar
    33     5     6   ar
    34    13    14    1
    35    14    15    1
    36    15    10    1
    37     6     1   ar
    38    31    25   ar
    39    37    33   ar
    40     7    16    1
