@<TRIPOS>MOLECULE
*****
 41 44 0 0 0
SMALL
GASTEIGER

@<TRIPOS>ATOM
      1 C          62.8185   85.6751   12.1993 C.ar    1  UNL1        0.1218
      2 C          62.2156   85.0183   10.9930 C.ar    1  UNL1        0.0208
      3 C          61.6680   85.8578    9.8770 C.ar    1  UNL1        0.0112
      4 C          61.7232   87.3540    9.9673 C.ar    1  UNL1        0.0611
      5 C          62.3262   88.0108   11.1737 C.ar    1  UNL1        0.1068
      6 N          62.8738   87.1714   12.2896 N.ar    1  UNL1       -0.2421
      7 C          63.3662   84.8356   13.3153 C.3     1  UNL1        0.3254
      8 F          64.6469   85.6156   13.2735 F       1  UNL1       -0.1949
      9 F          61.9912   84.2821   13.0858 F       1  UNL1       -0.1949
     10 O          64.4616   83.1568   15.5472 O.3     1  UNL1       -0.3755
     11 C          63.9139   83.9962   14.4312 C.3     1  UNL1        0.1932
     12 H          64.9377   83.7234   16.1743 H       1  UNL1        0.2110
     13 C          63.5019   82.7537   13.6989 C.ar    1  UNL1        0.0368
     14 C          62.4521   81.8537   14.2804 C.ar    1  UNL1        0.0028
     15 C          62.0401   80.6112   13.5480 C.ar    1  UNL1        0.0295
     16 C          62.6777   80.2687   12.2342 C.ar    1  UNL1        0.1424
     17 F          62.2656   79.0262   11.5018 F       1  UNL1       -0.2041
     18 C          63.7273   81.1687   11.6527 C.ar    1  UNL1        0.0590
     19 C          64.1395   82.4112   12.3850 C.ar    1  UNL1        0.1408
     20 F          65.1891   83.3112   11.8036 F       1  UNL1       -0.2043
     21 C          64.3260   85.2387   15.1637 C.3     1  UNL1        0.1679
     22 N          63.3319   85.9727   16.0139 N.ar    1  UNL1       -0.2078
     23 C          63.4115   87.4154   16.4171 C.ar    1  UNL1        0.2216
     24 N          62.2124   87.7272   17.2625 N.ar    1  UNL1       -0.1048
     25 N          61.3917   86.4773   17.3818 N.ar    1  UNL1       -0.0226
     26 N          62.0836   85.3930   16.6101 N.ar    1  UNL1       -0.0428
     27 C          61.1756   88.1935    8.8514 C.1     1  UNL1       -0.0582
     28 C          60.6279   89.0330    7.7355 C.1     1  UNL1       -0.0597
     29 C          60.0803   89.8725    6.6195 C.ar    1  UNL1        0.0421
     30 C          58.5973   90.0242    6.4533 C.ar    1  UNL1        0.0095
     31 C          58.0497   90.8636    5.3373 C.ar    1  UNL1        0.0149
     32 C          58.9851   91.5513    4.3876 C.ar    1  UNL1        0.0449
     33 C          60.4681   91.3997    4.5538 C.ar    1  UNL1        0.0149
     34 C          61.0157   90.5602    5.6697 C.ar    1  UNL1        0.0095
     35 N          58.4374   92.3908    3.2715 N.pl3   1  UNL1       -0.3258
     36 H          57.4658   92.4329    3.1183 H       1  UNL1        0.1471
     37 C          59.3701   93.1662    2.3890 C.3     1  UNL1        0.1919
     38 C          59.7224   92.6439    1.0277 C.3     1  UNL1        0.4154
     39 F          60.0748   92.1217   -0.3335 F       1  UNL1       -0.1682
     40 F          58.3474   92.9909    0.5387 F       1  UNL1       -0.1682
     41 F          61.0973   92.2970    1.5168 F       1  UNL1       -0.1682
@<TRIPOS>BOND
     1    10    11    1
     2    11    21    1
     3    21    22    1
     4    22    23   ar
     5    23    24   ar
     6    24    25   ar
     7    25    26   ar
     8    11    13    1
     9    13    14   ar
    10    14    15   ar
    11    15    16   ar
    12    16    17    1
    13    16    18   ar
    14    18    19   ar
    15    19    20    1
    16    11     7    1
    17     7     8    1
    18     7     9    1
    19     7     1    1
    20     1     2   ar
    21     2     3   ar
    22     3     4   ar
    23     4    27    1
    24    27    28    3
    25    28    29    1
    26    29    30   ar
    27    30    31   ar
    28    31    32   ar
    29    32    35    1
    30    35    37    1
    31    37    38    1
    32    38    39    1
    33    38    40    1
    34    38    41    1
    35    32    33   ar
    36    33    34   ar
    37     4     5   ar
    38     5     6   ar
    39    26    22   ar
    40    19    13   ar
    41     6     1   ar
    42    34    29   ar
    43    10    12    1
    44    35    36    1
@<TRIPOS>MOLECULE
*****
 41 44 0 0 0
SMALL
GASTEIGER

@<TRIPOS>ATOM
      1 C          62.8509   85.6148   12.1384 C.ar    1  UNL1        0.1218
      2 C          62.3040   84.9735   10.8976 C.ar    1  UNL1        0.0208
      3 C          61.7467   85.8257    9.7961 C.ar    1  UNL1        0.0112
      4 C          61.7363   87.3192    9.9355 C.ar    1  UNL1        0.0611
      5 C          62.2833   87.9605   11.1764 C.ar    1  UNL1        0.1068
      6 N          62.8406   87.1083   12.2778 N.ar    1  UNL1       -0.2421
      7 C          63.4083   84.7626   13.2399 C.3     1  UNL1        0.3254
      8 F          64.7421   85.4305   13.0817 F       1  UNL1       -0.1949
      9 F          61.9793   84.3209   13.1268 F       1  UNL1       -0.1949
     10 O          64.5229   83.0583   15.4428 O.3     1  UNL1       -0.3755
     11 C          63.9656   83.9105   14.3413 C.3     1  UNL1        0.1932
     12 H          64.9856   83.6204   16.0838 H       1  UNL1        0.2110
     13 C          63.5798   82.6761   13.5816 C.ar    1  UNL1        0.0368
     14 C          64.3303   82.2941   12.3402 C.ar    1  UNL1        0.0028
     15 C          63.9445   81.0597   11.5804 C.ar    1  UNL1        0.0295
     16 C          62.8081   80.2072   12.0619 C.ar    1  UNL1        0.1424
     17 F          62.4223   78.9728   11.3021 F       1  UNL1       -0.2041
     18 C          62.0576   80.5891   13.3032 C.ar    1  UNL1        0.0590
     19 C          62.4434   81.8235   14.0630 C.ar    1  UNL1        0.1408
     20 F          61.6928   82.2054   15.3043 F       1  UNL1       -0.2043
     21 C          64.3515   85.1449   15.1012 C.3     1  UNL1        0.1679
     22 N          63.3285   85.8685   15.9258 N.ar    1  UNL1       -0.2078
     23 C          63.4356   87.2789   16.4250 C.ar    1  UNL1        0.2216
     24 N          62.1921   87.5908   17.2037 N.ar    1  UNL1       -0.1048
     25 N          61.3165   86.3729   17.1859 N.ar    1  UNL1       -0.0226
     26 N          62.0188   85.3085   16.3961 N.ar    1  UNL1       -0.0428
     27 C          61.1791   88.1714    8.8341 C.1     1  UNL1       -0.0582
     28 C          60.6218   89.0236    7.7327 C.1     1  UNL1       -0.0597
     29 C          60.0645   89.8758    6.6312 C.ar    1  UNL1        0.0421
     30 C          60.9913   90.5648    5.6739 C.ar    1  UNL1        0.0095
     31 C          60.4340   91.4169    4.5725 C.ar    1  UNL1        0.0149
     32 C          58.9499   91.5801    4.4283 C.ar    1  UNL1        0.0449
     33 C          58.0231   90.8911    5.3855 C.ar    1  UNL1        0.0149
     34 C          58.5804   90.0390    6.4870 C.ar    1  UNL1        0.0095
     35 N          58.3925   92.4323    3.3268 N.pl3   1  UNL1       -0.3258
     36 H          57.5345   92.8986    3.4514 H       1  UNL1        0.1471
     37 C          59.1426   92.5740    2.0356 C.3     1  UNL1        0.1919
     38 C          60.4235   93.3536    1.9939 C.3     1  UNL1        0.4154
     39 F          61.7043   94.1331    1.9521 F       1  UNL1       -0.1682
     40 F          59.8867   94.2912    3.0345 F       1  UNL1       -0.1682
     41 F          60.9602   92.4161    0.9533 F       1  UNL1       -0.1682
@<TRIPOS>BOND
     1    10    11    1
     2    11    21    1
     3    21    22    1
     4    22    23   ar
     5    23    24   ar
     6    24    25   ar
     7    25    26   ar
     8    11    13    1
     9    13    14   ar
    10    14    15   ar
    11    15    16   ar
    12    16    17    1
    13    16    18   ar
    14    18    19   ar
    15    19    20    1
    16    11     7    1
    17     7     8    1
    18     7     9    1
    19     7     1    1
    20     1     2   ar
    21     2     3   ar
    22     3     4   ar
    23     4    27    1
    24    27    28    3
    25    28    29    1
    26    29    30   ar
    27    30    31   ar
    28    31    32   ar
    29    32    35    1
    30    35    37    1
    31    37    38    1
    32    38    39    1
    33    38    40    1
    34    38    41    1
    35    32    33   ar
    36    33    34   ar
    37     4     5   ar
    38     5     6   ar
    39    26    22   ar
    40    19    13   ar
    41     6     1   ar
    42    34    29   ar
    43    10    12    1
    44    35    36    1
@<TRIPOS>MOLECULE
*****
 41 44 0 0 0
SMALL
GASTEIGER

@<TRIPOS>ATOM
      1 C          62.4774   85.6902   11.6727 C.ar    1  UNL1        0.1218
      2 C          62.5995   85.2442   10.2458 C.ar    1  UNL1        0.0208
      3 C          62.1003   86.1253    9.1392 C.ar    1  UNL1        0.0112
      4 C          61.4790   87.4525    9.4597 C.ar    1  UNL1        0.0611
      5 C          61.3569   87.8985   10.8867 C.ar    1  UNL1        0.1068
      6 N          61.8561   87.0173   11.9932 N.ar    1  UNL1       -0.2421
      7 C          62.9766   84.8090   12.7793 C.3     1  UNL1        0.3254
      8 F          64.1934   84.4780   11.9669 F       1  UNL1       -0.1949
      9 F          61.6752   85.3433   13.2998 F       1  UNL1       -0.1949
     10 O          63.9749   83.0468   14.9923 O.3     1  UNL1       -0.3755
     11 C          63.4758   83.9279   13.8858 C.3     1  UNL1        0.1932
     12 H          63.9841   82.1245   14.6921 H       1  UNL1        0.2110
     13 C          63.4472   85.0948   14.8279 C.ar    1  UNL1        0.0368
     14 C          64.2132   86.3422   14.5002 C.ar    1  UNL1        0.0028
     15 C          64.1847   87.5091   15.4422 C.ar    1  UNL1        0.0295
     16 C          63.3903   87.4286   16.7120 C.ar    1  UNL1        0.1424
     17 F          63.3618   88.5955   17.6541 F       1  UNL1       -0.2041
     18 C          62.6243   86.1813   17.0398 C.ar    1  UNL1        0.0590
     19 C          62.6528   85.0143   16.0977 C.ar    1  UNL1        0.1408
     20 F          61.8868   83.7670   16.4254 F       1  UNL1       -0.2043
     21 C          63.5043   82.7609   12.9438 C.3     1  UNL1        0.1679
     22 N          62.6658   81.5494   13.2250 N.ar    1  UNL1       -0.2078
     23 C          62.8872   80.1749   12.6663 C.ar    1  UNL1        0.2216
     24 N          61.8170   79.2756   13.2103 N.ar    1  UNL1       -0.1048
     25 N          60.9342   80.0943   14.1051 N.ar    1  UNL1       -0.0226
     26 N          61.4589   81.4995   14.1142 N.ar    1  UNL1       -0.0428
     27 C          60.9799   88.3336    8.3532 C.1     1  UNL1       -0.0582
     28 C          60.4807   89.2147    7.2467 C.1     1  UNL1       -0.0597
     29 C          59.9815   90.0959    6.1401 C.ar    1  UNL1        0.0421
     30 C          60.9534   90.7286    5.1888 C.ar    1  UNL1        0.0095
     31 C          60.4542   91.6097    4.0823 C.ar    1  UNL1        0.0149
     32 C          58.9831   91.8581    3.9271 C.ar    1  UNL1        0.0449
     33 C          58.0111   91.2253    4.8784 C.ar    1  UNL1        0.0149
     34 C          58.5104   90.3443    5.9849 C.ar    1  UNL1        0.0095
     35 N          58.4838   92.7392    2.8205 N.pl3   1  UNL1       -0.3258
     36 H          57.5278   92.9678    2.7666 H       1  UNL1        0.1471
     37 C          59.4413   93.2720    1.7961 C.3     1  UNL1        0.1919
     38 C          59.6002   92.5689    0.4807 C.3     1  UNL1        0.4154
     39 F          59.7591   91.8658   -0.8347 F       1  UNL1       -0.1682
     40 F          60.9983   92.1778    0.8586 F       1  UNL1       -0.1682
     41 F          58.2023   92.9599    0.1028 F       1  UNL1       -0.1682
@<TRIPOS>BOND
     1    10    11    1
     2    11    21    1
     3    21    22    1
     4    22    23   ar
     5    23    24   ar
     6    24    25   ar
     7    25    26   ar
     8    11    13    1
     9    13    14   ar
    10    14    15   ar
    11    15    16   ar
    12    16    17    1
    13    16    18   ar
    14    18    19   ar
    15    19    20    1
    16    11     7    1
    17     7     8    1
    18     7     9    1
    19     7     1    1
    20     1     2   ar
    21     2     3   ar
    22     3     4   ar
    23     4    27    1
    24    27    28    3
    25    28    29    1
    26    29    30   ar
    27    30    31   ar
    28    31    32   ar
    29    32    35    1
    30    35    37    1
    31    37    38    1
    32    38    39    1
    33    38    40    1
    34    38    41    1
    35    32    33   ar
    36    33    34   ar
    37     4     5   ar
    38     5     6   ar
    39    26    22   ar
    40    19    13   ar
    41     6     1   ar
    42    34    29   ar
    43    10    12    1
    44    35    36    1
