@<TRIPOS>MOLECULE
*****
 23 26 0 0 0
SMALL
GASTEIGER

@<TRIPOS>ATOM
      1 O          61.1344   89.7086   12.5307 O.2     1  UNL1       -0.2448
      2 C          62.4370   89.4923   11.8192 C.2     1  UNL1        0.3428
      3 C          63.3851   90.6383   11.6252 C.2     1  UNL1        0.0963
      4 C          63.5315   91.4603   10.3790 C.2     1  UNL1        0.1049
      5 N          64.5902   92.4936   10.6271 N.2     1  UNL1       -0.2476
      6 C          65.0980   92.3103   12.0265 C.2     1  UNL1        0.0650
      7 C          66.1424   93.0393   12.8188 C.3     1  UNL1        0.0837
      8 C          66.4421   92.6217   14.2280 C.2     1  UNL1        0.0419
      9 CL         67.4865   93.3507   15.0203 Cl      1  UNL1       -0.0865
     10 C          65.6973   91.4750   14.8449 C.2     1  UNL1        0.0142
     11 C          64.6529   90.7460   14.0526 C.2     1  UNL1        0.0365
     12 BR         63.9081   89.5994   14.6695 Br      1  UNL1       -0.0489
     13 C          64.3533   91.1636   12.6434 C.2     1  UNL1        0.0279
     14 O          62.7915   88.1298   11.3015 O.3     1  UNL1       -0.4454
     15 C          61.7256   87.0861   11.1450 C.3     1  UNL1        0.2087
     16 C          61.3403   86.6068    9.7769 C.3     1  UNL1        0.0445
     17 C          62.2993   85.7781    8.9748 C.3     1  UNL1        0.0210
     18 C          61.9139   85.2989    7.6066 C.3     1  UNL1        0.0722
     19 N          60.5695   85.6484    7.0406 N.3     1  UNL1       -0.2727
     20 C          59.6105   86.4771    7.8427 C.3     1  UNL1        0.0722
     21 C          59.9959   86.9564    9.2109 C.3     1  UNL1        0.0210
     22 C          60.7360   85.9338    7.7947 C.3     1  UNL1        0.0722
     23 C          61.0843   86.3672    9.0319 C.3     1  UNL1        0.0210
@<TRIPOS>BOND
     1     1     2    2
     2     2    14    1
     3    14    15    1
     4    15    16    1
     5    16    17    1
     6    17    18    1
     7    18    19    1
     8    19    20    1
     9    20    21    1
    10    19    22    1
    11    22    23    1
    12     2     3    1
    13     3     4    2
    14     4     5    1
    15     5     6    2
    16     6     7    1
    17     7     8    1
    18     8     9    1
    19     8    10    2
    20    10    11    1
    21    11    12    1
    22    11    13    2
    23    21    16    1
    24    13     3    1
    25    23    16    1
    26    13     6    1
@<TRIPOS>MOLECULE
*****
 23 26 0 0 0
SMALL
GASTEIGER

@<TRIPOS>ATOM
      1 O          60.8850   89.2874   12.2737 O.2     1  UNL1       -0.2448
      2 C          62.3299   89.1001   11.9169 C.2     1  UNL1        0.3428
      3 C          63.1956   90.2941   11.6429 C.2     1  UNL1        0.0963
      4 C          63.2415   91.0747   10.3629 C.2     1  UNL1        0.1049
      5 N          64.2417   92.1800   10.5298 N.2     1  UNL1       -0.2476
      6 C          64.8140   92.0825   11.9128 C.2     1  UNL1        0.0650
      7 C          65.8403   92.9044   12.6347 C.3     1  UNL1        0.0837
      8 C          66.2202   92.5607   14.0445 C.2     1  UNL1        0.0419
      9 CL         67.2465   93.3827   14.7664 Cl      1  UNL1       -0.0865
     10 C          65.5737   91.3951   14.7325 C.2     1  UNL1        0.0142
     11 C          64.5473   90.5731   14.0106 C.2     1  UNL1        0.0365
     12 BR         63.9008   89.4075   14.6986 Br      1  UNL1       -0.0489
     13 C          64.1675   90.9168   12.6008 C.2     1  UNL1        0.0279
     14 O          62.9090   87.7189   11.8342 O.3     1  UNL1       -0.4454
     15 C          62.0770   86.5870   11.3083 C.3     1  UNL1        0.2087
     16 C          62.6305   85.1929   11.2941 C.3     1  UNL1        0.0445
     17 C          62.5669   84.3480   12.5318 C.3     1  UNL1        0.0210
     18 C          63.1204   82.9539   12.5175 C.3     1  UNL1        0.0722
     19 N          63.7375   82.4048   11.2654 N.3     1  UNL1       -0.2727
     20 C          63.8011   83.2498   10.0277 C.3     1  UNL1        0.0722
     21 C          63.2476   84.6438   10.0420 C.3     1  UNL1        0.0210
     22 C          63.4474   83.1743   11.2250 C.3     1  UNL1        0.0722
     23 C          62.9470   84.4349   11.2378 C.3     1  UNL1        0.0210
@<TRIPOS>BOND
     1     1     2    2
     2     2    14    1
     3    14    15    1
     4    15    16    1
     5    16    17    1
     6    17    18    1
     7    18    19    1
     8    19    20    1
     9    20    21    1
    10    19    22    1
    11    22    23    1
    12     2     3    1
    13     3     4    2
    14     4     5    1
    15     5     6    2
    16     6     7    1
    17     7     8    1
    18     8     9    1
    19     8    10    2
    20    10    11    1
    21    11    12    1
    22    11    13    2
    23    21    16    1
    24    13     3    1
    25    23    16    1
    26    13     6    1
@<TRIPOS>MOLECULE
*****
 23 26 0 0 0
SMALL
GASTEIGER

@<TRIPOS>ATOM
      1 O          63.7904   91.5750   14.8394 O.2     1  UNL1       -0.2448
      2 C          64.0666   90.9133   13.5220 C.2     1  UNL1        0.3428
      3 C          63.8191   89.4433   13.3545 C.2     1  UNL1        0.0963
      4 C          64.2192   88.3664   14.3190 C.2     1  UNL1        0.1049
      5 N          63.7754   87.0498   13.7537 N.2     1  UNL1       -0.2476
      6 C          63.1011   87.3129   12.4400 C.2     1  UNL1        0.0650
      7 C          62.4659   86.3967   11.4365 C.3     1  UNL1        0.0837
      8 C          61.8577   86.9597   10.1862 C.2     1  UNL1        0.0419
      9 CL         61.2226   86.0435    9.1827 Cl      1  UNL1       -0.0865
     10 C          61.8847   88.4391    9.9395 C.2     1  UNL1        0.0142
     11 C          62.5199   89.3553   10.9430 C.2     1  UNL1        0.0365
     12 BR         62.5469   90.8347   10.6963 Br      1  UNL1       -0.0489
     13 C          63.1281   88.7923   12.1932 C.2     1  UNL1        0.0279
     14 O          64.5902   91.7214   12.3719 O.3     1  UNL1       -0.4454
     15 C          65.8906   92.4576   12.5030 C.3     1  UNL1        0.2087
     16 C          66.5490   93.0392   11.2872 C.3     1  UNL1        0.0445
     17 C          67.5142   92.2134   10.4895 C.3     1  UNL1        0.0210
     18 C          68.1726   92.7951    9.2737 C.3     1  UNL1        0.0722
     19 N          67.8658   94.2026    8.8557 N.3     1  UNL1       -0.2727
     20 C          66.9006   95.0284    9.6534 C.3     1  UNL1        0.0722
     21 C          66.2422   94.4467   10.8692 C.3     1  UNL1        0.0210
     22 C          67.4804   93.9272    9.5291 C.3     1  UNL1        0.0722
     23 C          66.8850   93.4014   10.6284 C.3     1  UNL1        0.0210
@<TRIPOS>BOND
     1     1     2    2
     2     2    14    1
     3    14    15    1
     4    15    16    1
     5    16    17    1
     6    17    18    1
     7    18    19    1
     8    19    20    1
     9    20    21    1
    10    19    22    1
    11    22    23    1
    12     2     3    1
    13     3     4    2
    14     4     5    1
    15     5     6    2
    16     6     7    1
    17     7     8    1
    18     8     9    1
    19     8    10    2
    20    10    11    1
    21    11    12    1
    22    11    13    2
    23    21    16    1
    24    13     3    1
    25    23    16    1
    26    13     6    1
@<TRIPOS>MOLECULE
*****
 23 26 0 0 0
SMALL
GASTEIGER

@<TRIPOS>ATOM
      1 O          60.9728   89.3894   12.5654 O.2     1  UNL1       -0.2448
      2 C          62.4227   89.1329   12.2790 C.2     1  UNL1        0.3428
      3 C          63.4771   89.9724   12.9374 C.2     1  UNL1        0.0963
      4 C          64.0039   89.7938   14.3304 C.2     1  UNL1        0.1049
      5 N          65.0422   90.8489   14.5721 N.2     1  UNL1       -0.2476
      6 C          65.1572   91.6797   13.3285 C.2     1  UNL1        0.0650
      7 C          66.0178   92.8594   12.9856 C.3     1  UNL1        0.0837
      8 C          65.9110   93.4975   11.6322 C.2     1  UNL1        0.0419
      9 CL         66.7716   94.6772   11.2893 Cl      1  UNL1       -0.0865
     10 C          64.9437   92.9558   10.6218 C.2     1  UNL1        0.0142
     11 C          64.0831   91.7760   10.9648 C.2     1  UNL1        0.0365
     12 BR         63.1158   91.2343    9.9544 Br      1  UNL1       -0.0489
     13 C          64.1899   91.1380   12.3181 C.2     1  UNL1        0.0279
     14 O          62.8181   88.0369   11.3344 O.3     1  UNL1       -0.4454
     15 C          61.9317   86.8391   11.1620 C.3     1  UNL1        0.2087
     16 C          61.2422   86.5987    9.8517 C.3     1  UNL1        0.0445
     17 C          59.8827   87.1811    9.6017 C.3     1  UNL1        0.0210
     18 C          59.1932   86.9407    8.2914 C.3     1  UNL1        0.0722
     19 N          59.8633   86.1179    7.2312 N.3     1  UNL1       -0.2727
     20 C          61.2228   85.5356    7.4813 C.3     1  UNL1        0.0722
     21 C          61.9123   85.7760    8.7915 C.3     1  UNL1        0.0210
     22 C          60.2804   86.2224    7.9333 C.3     1  UNL1        0.0722
     23 C          60.9039   86.4397    9.1181 C.3     1  UNL1        0.0210
@<TRIPOS>BOND
     1     1     2    2
     2     2    14    1
     3    14    15    1
     4    15    16    1
     5    16    17    1
     6    17    18    1
     7    18    19    1
     8    19    20    1
     9    20    21    1
    10    19    22    1
    11    22    23    1
    12     2     3    1
    13     3     4    2
    14     4     5    1
    15     5     6    2
    16     6     7    1
    17     7     8    1
    18     8     9    1
    19     8    10    2
    20    10    11    1
    21    11    12    1
    22    11    13    2
    23    21    16    1
    24    13     3    1
    25    23    16    1
    26    13     6    1
@<TRIPOS>MOLECULE
*****
 23 26 0 0 0
SMALL
GASTEIGER

@<TRIPOS>ATOM
      1 O          60.9070   89.1999   12.2562 O.2     1  UNL1       -0.2448
      2 C          62.3542   88.8365   12.1027 C.2     1  UNL1        0.3428
      3 C          63.4056   89.6201   12.8310 C.2     1  UNL1        0.0963
      4 C          63.9449   89.3146   14.1970 C.2     1  UNL1        0.1049
      5 N          64.9749   90.3525   14.5314 N.2     1  UNL1       -0.2476
      6 C          65.0723   91.2994   13.3721 C.2     1  UNL1        0.0650
      7 C          65.9188   92.5153   13.1376 C.3     1  UNL1        0.0837
      8 C          65.7954   93.2785   11.8522 C.2     1  UNL1        0.0419
      9 CL         66.6419   94.4944   11.6177 Cl      1  UNL1       -0.0865
     10 C          64.8255   92.8259   10.8013 C.2     1  UNL1        0.0142
     11 C          63.9790   91.6099   11.0358 C.2     1  UNL1        0.0365
     12 BR         63.0091   91.1573    9.9849 Br      1  UNL1       -0.0489
     13 C          64.1024   90.8467   12.3212 C.2     1  UNL1        0.0279
     14 O          62.7499   87.6895   11.2208 O.3     1  UNL1       -0.4454
     15 C          62.0372   86.3745   11.3355 C.3     1  UNL1        0.2087
     16 C          62.8164   85.1192   11.5943 C.3     1  UNL1        0.0445
     17 C          63.1724   84.2093   10.4563 C.3     1  UNL1        0.0210
     18 C          63.9516   82.9540   10.7152 C.3     1  UNL1        0.0722
     19 N          64.3747   82.6086   12.1122 N.3     1  UNL1       -0.2727
     20 C          64.0187   83.5185   13.2503 C.3     1  UNL1        0.0722
     21 C          63.2395   84.7738   12.9914 C.3     1  UNL1        0.0210
     22 C          63.9492   83.3073   12.0195 C.3     1  UNL1        0.0722
     23 C          63.2446   84.4424   11.7855 C.3     1  UNL1        0.0210
@<TRIPOS>BOND
     1     1     2    2
     2     2    14    1
     3    14    15    1
     4    15    16    1
     5    16    17    1
     6    17    18    1
     7    18    19    1
     8    19    20    1
     9    20    21    1
    10    19    22    1
    11    22    23    1
    12     2     3    1
    13     3     4    2
    14     4     5    1
    15     5     6    2
    16     6     7    1
    17     7     8    1
    18     8     9    1
    19     8    10    2
    20    10    11    1
    21    11    12    1
    22    11    13    2
    23    21    16    1
    24    13     3    1
    25    23    16    1
    26    13     6    1
@<TRIPOS>MOLECULE
*****
 23 26 0 0 0
SMALL
GASTEIGER

@<TRIPOS>ATOM
      1 O          64.3540   85.5269   13.6698 O.2     1  UNL1       -0.2448
      2 C          63.0485   84.9513   13.2066 C.2     1  UNL1        0.3428
      3 C          62.7164   83.5174   13.4957 C.2     1  UNL1        0.0963
      4 C          62.2091   82.9753   14.7990 C.2     1  UNL1        0.1049
      5 N          62.0125   81.4967   14.6409 N.2     1  UNL1       -0.2476
      6 C          62.3983   81.1249   13.2398 C.2     1  UNL1        0.0650
      7 C          62.4097   79.8106   12.5171 C.3     1  UNL1        0.0837
      8 C          62.8561   79.7451   11.0865 C.2     1  UNL1        0.0419
      9 CL         62.8675   78.4308   10.3638 Cl      1  UNL1       -0.0865
     10 C          63.2912   80.9940   10.3787 C.2     1  UNL1        0.0142
     11 C          63.2798   82.3084   11.1015 C.2     1  UNL1        0.0365
     12 BR         63.7149   83.5573   10.3937 Br      1  UNL1       -0.0489
     13 C          62.8334   82.3738   12.5320 C.2     1  UNL1        0.0279
     14 O          62.0752   85.8097   12.4545 O.3     1  UNL1       -0.4454
     15 C          62.5629   86.7206   11.3670 C.3     1  UNL1        0.2087
     16 C          61.6448   87.1095   10.2465 C.3     1  UNL1        0.0445
     17 C          61.2245   88.5401   10.0832 C.3     1  UNL1        0.0210
     18 C          60.3064   88.9289    8.9626 C.3     1  UNL1        0.0722
     19 N          59.8085   87.8871    8.0052 N.3     1  UNL1       -0.2727
     20 C          60.2287   86.4564    8.1684 C.3     1  UNL1        0.0722
     21 C          61.1469   86.0676    9.2890 C.3     1  UNL1        0.0210
     22 C          60.3100   87.6261    8.6037 C.3     1  UNL1        0.0722
     23 C          61.1402   87.2744    9.6170 C.3     1  UNL1        0.0210
@<TRIPOS>BOND
     1     1     2    2
     2     2    14    1
     3    14    15    1
     4    15    16    1
     5    16    17    1
     6    17    18    1
     7    18    19    1
     8    19    20    1
     9    20    21    1
    10    19    22    1
    11    22    23    1
    12     2     3    1
    13     3     4    2
    14     4     5    1
    15     5     6    2
    16     6     7    1
    17     7     8    1
    18     8     9    1
    19     8    10    2
    20    10    11    1
    21    11    12    1
    22    11    13    2
    23    21    16    1
    24    13     3    1
    25    23    16    1
    26    13     6    1
@<TRIPOS>MOLECULE
*****
 23 26 0 0 0
SMALL
GASTEIGER

@<TRIPOS>ATOM
      1 O          62.2853   89.8346   15.0954 O.2     1  UNL1       -0.2448
      2 C          63.6204   89.6181   14.4470 C.2     1  UNL1        0.3428
      3 C          64.5712   90.7671   14.2861 C.2     1  UNL1        0.0963
      4 C          65.4600   91.3322   15.3540 C.2     1  UNL1        0.1049
      5 N          66.2382   92.4671   14.7569 N.2     1  UNL1       -0.2476
      6 C          65.8303   92.6033   13.3199 C.2     1  UNL1        0.0650
      7 C          66.2639   93.5484   12.2387 C.3     1  UNL1        0.0837
      8 C          65.6672   93.4428   10.8665 C.2     1  UNL1        0.0419
      9 CL         66.1008   94.3878    9.7854 Cl      1  UNL1       -0.0865
     10 C          64.6369   92.3921   10.5755 C.2     1  UNL1        0.0142
     11 C          64.2033   91.4471   11.6567 C.2     1  UNL1        0.0365
     12 BR         63.1730   90.3964   11.3657 Br      1  UNL1       -0.0489
     13 C          64.8000   91.5527   13.0289 C.2     1  UNL1        0.0279
     14 O          64.0048   88.2527   13.9594 O.3     1  UNL1       -0.4454
     15 C          64.6449   87.2736   14.8984 C.3     1  UNL1        0.2087
     16 C          64.1902   85.8443   14.9162 C.3     1  UNL1        0.0445
     17 C          63.1157   85.4108   15.8688 C.3     1  UNL1        0.0210
     18 C          62.6610   83.9815   15.8865 C.3     1  UNL1        0.0722
     19 N          63.2808   82.9857   14.9516 N.3     1  UNL1       -0.2727
     20 C          64.3553   83.4191   13.9990 C.3     1  UNL1        0.0722
     21 C          64.8100   84.8484   13.9813 C.3     1  UNL1        0.0210
     22 C          63.5628   83.7578   14.9053 C.3     1  UNL1        0.0722
     23 C          63.9740   85.0502   14.8892 C.3     1  UNL1        0.0210
@<TRIPOS>BOND
     1     1     2    2
     2     2    14    1
     3    14    15    1
     4    15    16    1
     5    16    17    1
     6    17    18    1
     7    18    19    1
     8    19    20    1
     9    20    21    1
    10    19    22    1
    11    22    23    1
    12     2     3    1
    13     3     4    2
    14     4     5    1
    15     5     6    2
    16     6     7    1
    17     7     8    1
    18     8     9    1
    19     8    10    2
    20    10    11    1
    21    11    12    1
    22    11    13    2
    23    21    16    1
    24    13     3    1
    25    23    16    1
    26    13     6    1
@<TRIPOS>MOLECULE
*****
 23 26 0 0 0
SMALL
GASTEIGER

@<TRIPOS>ATOM
      1 O          63.9151   86.3396   13.5588 O.2     1  UNL1       -0.2448
      2 C          63.0029   85.8835   12.4588 C.2     1  UNL1        0.3428
      3 C          63.1635   84.5127   11.8713 C.2     1  UNL1        0.0963
      4 C          63.6692   84.1972   10.4948 C.2     1  UNL1        0.1049
      5 N          63.6648   82.7063   10.3299 N.2     1  UNL1       -0.2476
      6 C          63.1565   82.1004   11.6044 C.2     1  UNL1        0.0650
      7 C          62.9356   80.6764   12.0207 C.3     1  UNL1        0.0837
      8 C          62.4050   80.3687   13.3896 C.2     1  UNL1        0.0419
      9 CL         62.1842   78.9447   13.8058 Cl      1  UNL1       -0.0865
     10 C          62.0952   81.4852   14.3422 C.2     1  UNL1        0.0142
     11 C          62.3160   82.9093   13.9259 C.2     1  UNL1        0.0365
     12 BR         62.0062   84.0257   14.8786 Br      1  UNL1       -0.0489
     13 C          62.8466   83.2169   12.5571 C.2     1  UNL1        0.0279
     14 O          61.9302   86.7982   11.9464 O.3     1  UNL1       -0.4454
     15 C          62.0698   87.4354   10.5957 C.3     1  UNL1        0.2087
     16 C          61.2671   86.9216    9.4374 C.3     1  UNL1        0.0445
     17 C          61.8841   85.9608    8.4647 C.3     1  UNL1        0.0210
     18 C          61.0813   85.4470    7.3064 C.3     1  UNL1        0.0722
     19 N          59.6616   85.8941    7.1209 N.3     1  UNL1       -0.2727
     20 C          59.0446   86.8549    8.0936 C.3     1  UNL1        0.0722
     21 C          59.8474   87.3686    9.2519 C.3     1  UNL1        0.0210
     22 C          60.0619   86.2028    7.7707 C.3     1  UNL1        0.0722
     23 C          60.7877   86.6675    8.8181 C.3     1  UNL1        0.0210
@<TRIPOS>BOND
     1     1     2    2
     2     2    14    1
     3    14    15    1
     4    15    16    1
     5    16    17    1
     6    17    18    1
     7    18    19    1
     8    19    20    1
     9    20    21    1
    10    19    22    1
    11    22    23    1
    12     2     3    1
    13     3     4    2
    14     4     5    1
    15     5     6    2
    16     6     7    1
    17     7     8    1
    18     8     9    1
    19     8    10    2
    20    10    11    1
    21    11    12    1
    22    11    13    2
    23    21    16    1
    24    13     3    1
    25    23    16    1
    26    13     6    1
@<TRIPOS>MOLECULE
*****
 23 26 0 0 0
SMALL
GASTEIGER

@<TRIPOS>ATOM
      1 O          63.4884   86.1656   15.8328 O.2     1  UNL1       -0.2448
      2 C          64.1077   86.4262   14.4917 C.2     1  UNL1        0.3428
      3 C          63.8772   87.7376   13.8012 C.2     1  UNL1        0.0963
      4 C          64.3801   89.0750   14.2579 C.2     1  UNL1        0.1049
      5 N          63.9170   90.1058   13.2716 N.2     1  UNL1       -0.2476
      6 C          63.1278   89.4056   12.2053 C.2     1  UNL1        0.0650
      7 C          62.4284   89.9117   10.9787 C.3     1  UNL1        0.0837
      8 C          61.7044   88.9541   10.0792 C.2     1  UNL1        0.0419
      9 CL         61.0050   89.4601    8.8526 Cl      1  UNL1       -0.0865
     10 C          61.6798   87.4904   10.4066 C.2     1  UNL1        0.0142
     11 C          62.3792   86.9844   11.6333 C.2     1  UNL1        0.0365
     12 BR         62.3546   85.5207   11.9606 Br      1  UNL1       -0.0489
     13 C          63.1032   87.9420   12.5326 C.2     1  UNL1        0.0279
     14 O          64.9576   85.3752   13.8412 O.3     1  UNL1       -0.4454
     15 C          64.9842   83.9821   14.3969 C.3     1  UNL1        0.2087
     16 C          63.9568   82.9805   13.9596 C.3     1  UNL1        0.0445
     17 C          64.1653   82.1934   12.6999 C.3     1  UNL1        0.0210
     18 C          63.1378   81.1918   12.2627 C.3     1  UNL1        0.0722
     19 N          61.9019   80.9774   13.0852 N.3     1  UNL1       -0.2727
     20 C          61.6934   81.7645   14.3449 C.3     1  UNL1        0.0722
     21 C          62.7209   82.7661   14.7821 C.3     1  UNL1        0.0210
     22 C          62.4368   81.5372   13.3651 C.3     1  UNL1        0.0722
     23 C          63.3658   82.4429   13.7605 C.3     1  UNL1        0.0210
@<TRIPOS>BOND
     1     1     2    2
     2     2    14    1
     3    14    15    1
     4    15    16    1
     5    16    17    1
     6    17    18    1
     7    18    19    1
     8    19    20    1
     9    20    21    1
    10    19    22    1
    11    22    23    1
    12     2     3    1
    13     3     4    2
    14     4     5    1
    15     5     6    2
    16     6     7    1
    17     7     8    1
    18     8     9    1
    19     8    10    2
    20    10    11    1
    21    11    12    1
    22    11    13    2
    23    21    16    1
    24    13     3    1
    25    23    16    1
    26    13     6    1
