@<TRIPOS>MOLECULE
*****
 31 32 0 0 0
SMALL
GASTEIGER

@<TRIPOS>ATOM
      1 C          63.4908   89.5207   13.6896 C.ar    1  UNL1        0.0577
      2 C          63.3747   88.4785   12.6171 C.ar    1  UNL1        0.0462
      3 C          63.5120   87.0258   12.9650 C.ar    1  UNL1        0.1602
      4 F          63.3959   85.9835   11.8925 F       1  UNL1       -0.2027
      5 C          63.7655   86.6155   14.3853 C.ar    1  UNL1        0.1534
      6 C          63.8817   87.6577   15.4577 C.ar    1  UNL1        0.0351
      7 C          63.7443   89.1103   15.1099 C.ar    1  UNL1        0.0722
      8 CL         63.8605   90.1526   16.1824 Cl      1  UNL1       -0.0809
      9 S          63.9029   85.1628   14.7331 S.O2    1  UNL1        0.0772
     10 O          62.4165   85.0643   14.9086 O.2     1  UNL1       -0.1498
     11 O          65.3893   85.2614   14.5577 O.2     1  UNL1       -0.1498
     12 N          64.0403   83.7102   15.0810 N.pl3   1  UNL1       -0.1936
     13 H          64.4837   83.4445   15.9189 H       1  UNL1        0.1758
     14 C          63.5021   82.6625   14.1523 C.ar    1  UNL1        0.1807
     15 N          62.6182   81.5131   14.5371 N.ar    1  UNL1       -0.2190
     16 C          62.3231   80.7204   13.2984 C.ar    1  UNL1        0.1372
     17 C          63.0246   81.3797   12.1480 C.ar    1  UNL1        0.1915
     18 F          63.0014   80.9195   10.7205 F       1  UNL1       -0.1953
     19 S          63.7532   82.5800   12.6758 S.2     1  UNL1       -0.0209
     20 N          63.3534   90.9733   13.3417 N.pl3   1  UNL1       -0.3309
     21 H          62.5518   91.4725   13.6199 H       1  UNL1        0.1469
     22 C          64.4375   91.6655   12.5699 C.3     1  UNL1        0.1030
     23 C          65.5395   92.3767   13.2979 C.3     1  UNL1        0.0738
     24 C          66.1654   94.3144   11.6845 C.3     1  UNL1        0.0859
     25 N          65.7797   93.8369   13.0531 N.3     1  UNL1       -0.2960
     26 H          64.9183   94.3229   13.3027 H       1  UNL1        0.1233
     27 C          66.4012   91.6275   14.2707 C.3     1  UNL1        0.0175
     28 C          67.6399   92.2681   14.8232 C.3     1  UNL1        0.0013
     29 C          66.8758   92.6954   16.0412 C.3     1  UNL1        0.0000
     30 C          68.4041   91.8408   13.6052 C.3     1  UNL1        0.0000
     31 C          68.8787   92.9087   15.3756 C.3     1  UNL1        0.0000
@<TRIPOS>BOND
     1    24    25    1
     2    25    23    1
     3    23    22    1
     4    22    20    1
     5    20     1    1
     6     1     2   ar
     7     2     3   ar
     8     3     4    1
     9     3     5   ar
    10     5     9    1
    11     9    10    2
    12     9    11    2
    13     9    12    1
    14    12    14    1
    15    14    15   ar
    16    15    16   ar
    17    16    17   ar
    18    17    18    1
    19    17    19   ar
    20     5     6   ar
    21     6     7   ar
    22     7     8    1
    23    23    27    1
    24    27    28    1
    25    28    29    1
    26    28    30    1
    27    28    31    1
    28     7     1   ar
    29    19    14   ar
    30    25    26    1
    31    20    21    1
    32    12    13    1
@<TRIPOS>MOLECULE
*****
 31 32 0 0 0
SMALL
GASTEIGER

@<TRIPOS>ATOM
      1 C          62.3585   88.1987   11.6834 C.ar    1  UNL1        0.0577
      2 C          63.3273   88.4307   12.8048 C.ar    1  UNL1        0.0462
      3 C          64.0806   89.7250   12.8895 C.ar    1  UNL1        0.1602
      4 F          65.0494   89.9570   14.0110 F       1  UNL1       -0.2027
      5 C          63.8652   90.7874   11.8527 C.ar    1  UNL1        0.1534
      6 C          62.8965   90.5554   10.7312 C.ar    1  UNL1        0.0351
      7 C          62.1432   89.2611   10.6466 C.ar    1  UNL1        0.0722
      8 CL         61.1744   89.0291    9.5250 Cl      1  UNL1       -0.0809
      9 S          64.6186   92.0817   11.9374 S.O2    1  UNL1        0.0772
     10 O          64.5319   92.0343   13.4341 O.2     1  UNL1       -0.1498
     11 O          64.7053   92.1292   10.4406 O.2     1  UNL1       -0.1498
     12 N          65.3720   93.3760   12.0220 N.pl3   1  UNL1       -0.1936
     13 H          65.2158   93.9880   12.7772 H       1  UNL1        0.1758
     14 C          66.3632   93.7380   10.9560 C.ar    1  UNL1        0.1807
     15 N          67.5284   92.9024   10.5151 N.ar    1  UNL1       -0.2190
     16 C          68.2487   93.6470    9.4304 C.ar    1  UNL1        0.1372
     17 C          67.5288   94.9428    9.2008 C.ar    1  UNL1        0.1915
     18 F          67.9076   95.9973    8.2035 F       1  UNL1       -0.1953
     19 S          66.3635   94.9990   10.1438 S.2     1  UNL1       -0.0209
     20 N          61.6052   86.9044   11.5987 N.pl3   1  UNL1       -0.3309
     21 H          60.6305   86.8922   11.7372 H       1  UNL1        0.1469
     22 C          62.3367   85.6287   11.3031 C.3     1  UNL1        0.1030
     23 C          62.8915   84.8046   12.4269 C.3     1  UNL1        0.0738
     24 C          63.3206   84.7068   14.9874 C.3     1  UNL1        0.0859
     25 N          62.4240   85.0412   13.8323 N.3     1  UNL1       -0.2960
     26 H          62.2061   86.0349   13.9068 H       1  UNL1        0.1233
     27 C          63.9139   83.7437   12.1452 C.3     1  UNL1        0.0175
     28 C          63.5461   82.5488   11.3165 C.3     1  UNL1        0.0013
     29 C          64.4339   83.0412   10.2123 C.3     1  UNL1        0.0000
     30 C          62.6583   82.0563   12.4207 C.3     1  UNL1        0.0000
     31 C          63.1782   81.3538   10.4877 C.3     1  UNL1        0.0000
@<TRIPOS>BOND
     1    24    25    1
     2    25    23    1
     3    23    22    1
     4    22    20    1
     5    20     1    1
     6     1     2   ar
     7     2     3   ar
     8     3     4    1
     9     3     5   ar
    10     5     9    1
    11     9    10    2
    12     9    11    2
    13     9    12    1
    14    12    14    1
    15    14    15   ar
    16    15    16   ar
    17    16    17   ar
    18    17    18    1
    19    17    19   ar
    20     5     6   ar
    21     6     7   ar
    22     7     8    1
    23    23    27    1
    24    27    28    1
    25    28    29    1
    26    28    30    1
    27    28    31    1
    28     7     1   ar
    29    19    14   ar
    30    25    26    1
    31    20    21    1
    32    12    13    1
@<TRIPOS>MOLECULE
*****
 31 32 0 0 0
SMALL
GASTEIGER

@<TRIPOS>ATOM
      1 C          62.2423   87.9280   11.5391 C.ar    1  UNL1        0.0577
      2 C          63.1750   88.0204   12.7103 C.ar    1  UNL1        0.0462
      3 C          63.9333   89.2889   12.9670 C.ar    1  UNL1        0.1602
      4 F          64.8660   89.3812   14.1382 F       1  UNL1       -0.2027
      5 C          63.7590   90.4650   12.0525 C.ar    1  UNL1        0.1534
      6 C          62.8263   90.3726   10.8814 C.ar    1  UNL1        0.0351
      7 C          62.0680   89.1041   10.6247 C.ar    1  UNL1        0.0722
      8 CL         61.1354   89.0118    9.4535 Cl      1  UNL1       -0.0809
      9 S          64.5173   91.7335   12.3092 S.O2    1  UNL1        0.0772
     10 O          64.0396   91.7313   13.7311 O.2     1  UNL1       -0.1498
     11 O          64.9950   91.7356   10.8873 O.2     1  UNL1       -0.1498
     12 N          65.2756   93.0020   12.5659 N.pl3   1  UNL1       -0.1936
     13 H          64.9671   93.8487   12.1695 H       1  UNL1        0.1758
     14 C          66.5040   92.9804   13.4264 C.ar    1  UNL1        0.1807
     15 N          67.6950   92.0875   13.2408 N.ar    1  UNL1       -0.2190
     16 C          68.6842   92.4032   14.3234 C.ar    1  UNL1        0.1372
     17 C          68.1045   93.4911   15.1781 C.ar    1  UNL1        0.1915
     18 F          68.7576   94.1131   16.3767 F       1  UNL1       -0.1953
     19 S          66.7571   93.8478   14.6237 S.2     1  UNL1       -0.0209
     20 N          61.4840   86.6595   11.2825 N.pl3   1  UNL1       -0.3309
     21 H          60.5010   86.6754   11.2314 H       1  UNL1        0.1469
     22 C          62.2234   85.3668   11.1036 C.3     1  UNL1        0.1030
     23 C          62.6997   84.6029   12.3034 C.3     1  UNL1        0.0738
     24 C          62.7869   84.3422   14.8869 C.3     1  UNL1        0.0859
     25 N          62.1377   84.9102   13.6597 N.3     1  UNL1       -0.2960
     26 H          62.1527   85.9250   13.7616 H       1  UNL1        0.1233
     27 C          63.7380   83.5317   12.1469 C.3     1  UNL1        0.0175
     28 C          63.4654   82.3454   11.2703 C.3     1  UNL1        0.0013
     29 C          64.4066   82.8918   10.2381 C.3     1  UNL1        0.0000
     30 C          62.5242   81.7989   12.3025 C.3     1  UNL1        0.0000
     31 C          63.1928   81.1591   10.3937 C.3     1  UNL1        0.0000
@<TRIPOS>BOND
     1    24    25    1
     2    25    23    1
     3    23    22    1
     4    22    20    1
     5    20     1    1
     6     1     2   ar
     7     2     3   ar
     8     3     4    1
     9     3     5   ar
    10     5     9    1
    11     9    10    2
    12     9    11    2
    13     9    12    1
    14    12    14    1
    15    14    15   ar
    16    15    16   ar
    17    16    17   ar
    18    17    18    1
    19    17    19   ar
    20     5     6   ar
    21     6     7   ar
    22     7     8    1
    23    23    27    1
    24    27    28    1
    25    28    29    1
    26    28    30    1
    27    28    31    1
    28     7     1   ar
    29    19    14   ar
    30    25    26    1
    31    20    21    1
    32    12    13    1
@<TRIPOS>MOLECULE
*****
 31 32 0 0 0
SMALL
GASTEIGER

@<TRIPOS>ATOM
      1 C          63.5839   89.4471   13.0462 C.ar    1  UNL1        0.0577
      2 C          63.1525   88.3282   12.1451 C.ar    1  UNL1        0.0462
      3 C          63.2746   86.9056   12.6046 C.ar    1  UNL1        0.1602
      4 F          62.8432   85.7867   11.7034 F       1  UNL1       -0.2027
      5 C          63.8280   86.6017   13.9652 C.ar    1  UNL1        0.1534
      6 C          64.2594   87.7206   14.8663 C.ar    1  UNL1        0.0351
      7 C          64.1373   89.1433   14.4068 C.ar    1  UNL1        0.0722
      8 CL         64.5687   90.2621   15.3080 Cl      1  UNL1       -0.0809
      9 S          63.9501   85.1791   14.4247 S.O2    1  UNL1        0.0772
     10 O          65.4427   85.2685   14.3051 O.2     1  UNL1       -0.1498
     11 O          62.4576   85.0897   14.5443 O.2     1  UNL1       -0.1498
     12 N          64.0722   83.7564   14.8842 N.pl3   1  UNL1       -0.1936
     13 H          64.4908   83.5536   15.7519 H       1  UNL1        0.1758
     14 C          63.5565   82.6428   14.0218 C.ar    1  UNL1        0.1807
     15 N          62.7975   81.4391   14.4964 N.ar    1  UNL1       -0.2190
     16 C          62.4811   80.5897   13.3012 C.ar    1  UNL1        0.1372
     17 C          63.0445   81.2684   12.0879 C.ar    1  UNL1        0.1915
     18 F          62.9584   80.7664   10.6771 F       1  UNL1       -0.1953
     19 S          63.7091   82.5373   12.5333 S.2     1  UNL1       -0.0209
     20 N          63.4618   90.8697   12.5867 N.pl3   1  UNL1       -0.3309
     21 H          62.7622   91.1201   11.9409 H       1  UNL1        0.1469
     22 C          64.4057   91.9109   13.1111 C.3     1  UNL1        0.1030
     23 C          65.7012   92.1740   12.4023 C.3     1  UNL1        0.0738
     24 C          67.0903   93.1309   14.3782 C.3     1  UNL1        0.0859
     25 N          66.9825   92.2354   13.1797 N.3     1  UNL1       -0.2960
     26 H          67.1770   91.2874   13.5020 H       1  UNL1        0.1233
     27 C          65.7153   92.3757   10.9159 C.3     1  UNL1        0.0175
     28 C          66.6263   93.3999   10.3067 C.3     1  UNL1        0.0013
     29 C          67.5697   92.3117    9.8877 C.3     1  UNL1        0.0000
     30 C          65.6828   94.4882   10.7257 C.3     1  UNL1        0.0000
     31 C          67.5372   94.4242    9.6975 C.3     1  UNL1        0.0000
@<TRIPOS>BOND
     1    24    25    1
     2    25    23    1
     3    23    22    1
     4    22    20    1
     5    20     1    1
     6     1     2   ar
     7     2     3   ar
     8     3     4    1
     9     3     5   ar
    10     5     9    1
    11     9    10    2
    12     9    11    2
    13     9    12    1
    14    12    14    1
    15    14    15   ar
    16    15    16   ar
    17    16    17   ar
    18    17    18    1
    19    17    19   ar
    20     5     6   ar
    21     6     7   ar
    22     7     8    1
    23    23    27    1
    24    27    28    1
    25    28    29    1
    26    28    30    1
    27    28    31    1
    28     7     1   ar
    29    19    14   ar
    30    25    26    1
    31    20    21    1
    32    12    13    1
@<TRIPOS>MOLECULE
*****
 31 32 0 0 0
SMALL
GASTEIGER

@<TRIPOS>ATOM
      1 C          62.5007   88.5901   11.7771 C.ar    1  UNL1        0.0577
      2 C          63.4859   88.7177   12.9009 C.ar    1  UNL1        0.0462
      3 C          64.3126   89.9620   13.0360 C.ar    1  UNL1        0.1602
      4 F          65.2978   90.0896   14.1599 F       1  UNL1       -0.2027
      5 C          64.1542   91.0788   12.0472 C.ar    1  UNL1        0.1534
      6 C          63.1690   90.9512   10.9233 C.ar    1  UNL1        0.0351
      7 C          62.3423   89.7069   10.7883 C.ar    1  UNL1        0.0722
      8 CL         61.3571   89.5793    9.6643 Cl      1  UNL1       -0.0809
      9 S          64.9809   92.3231   12.1823 S.O2    1  UNL1        0.0772
     10 O          64.7079   92.3443   13.6571 O.2     1  UNL1       -0.1498
     11 O          65.2539   92.3018   10.7075 O.2     1  UNL1       -0.1498
     12 N          65.8076   93.5674   12.3174 N.pl3   1  UNL1       -0.1936
     13 H          65.9753   93.9527   13.2077 H       1  UNL1        0.1758
     14 C          66.3788   94.2246   11.0960 C.ar    1  UNL1        0.1807
     15 N          67.6274   93.8112   10.3746 N.ar    1  UNL1       -0.2190
     16 C          67.8221   94.7416    9.2143 C.ar    1  UNL1        0.1372
     17 C          66.6938   95.7301    9.2185 C.ar    1  UNL1        0.1915
     18 F          66.4928   96.8428    8.2328 F       1  UNL1       -0.1953
     19 S          65.8018   95.4105   10.3815 S.2     1  UNL1       -0.0209
     20 N          61.6740   87.3458   11.6420 N.pl3   1  UNL1       -0.3309
     21 H          60.7027   87.4136   11.4964 H       1  UNL1        0.1469
     22 C          62.3272   85.9983   11.7287 C.3     1  UNL1        0.1030
     23 C          62.4709   85.1539   10.4973 C.3     1  UNL1        0.0738
     24 C          62.8846   84.9828    7.9381 C.3     1  UNL1        0.0859
     25 N          62.5450   85.8031    9.1471 N.3     1  UNL1       -0.2960
     26 H          61.6319   86.2224    8.9715 H       1  UNL1        0.1233
     27 C          62.5405   83.6602   10.6161 C.3     1  UNL1        0.0175
     28 C          63.5150   83.0279   11.5651 C.3     1  UNL1        0.0013
     29 C          62.4013   82.7682   12.5358 C.3     1  UNL1        0.0000
     30 C          64.6288   83.2877   10.5945 C.3     1  UNL1        0.0000
     31 C          64.4895   82.3957   12.5141 C.3     1  UNL1        0.0000
@<TRIPOS>BOND
     1    24    25    1
     2    25    23    1
     3    23    22    1
     4    22    20    1
     5    20     1    1
     6     1     2   ar
     7     2     3   ar
     8     3     4    1
     9     3     5   ar
    10     5     9    1
    11     9    10    2
    12     9    11    2
    13     9    12    1
    14    12    14    1
    15    14    15   ar
    16    15    16   ar
    17    16    17   ar
    18    17    18    1
    19    17    19   ar
    20     5     6   ar
    21     6     7   ar
    22     7     8    1
    23    23    27    1
    24    27    28    1
    25    28    29    1
    26    28    30    1
    27    28    31    1
    28     7     1   ar
    29    19    14   ar
    30    25    26    1
    31    20    21    1
    32    12    13    1
@<TRIPOS>MOLECULE
*****
 31 32 0 0 0
SMALL
GASTEIGER

@<TRIPOS>ATOM
      1 C          62.1356   88.0821   11.5142 C.ar    1  UNL1        0.0577
      2 C          63.0906   88.1752   12.6671 C.ar    1  UNL1        0.0462
      3 C          63.8910   89.4260   12.8788 C.ar    1  UNL1        0.1602
      4 F          64.8461   89.5191   14.0318 F       1  UNL1       -0.2027
      5 C          63.7365   90.5836   11.9376 C.ar    1  UNL1        0.1534
      6 C          62.7815   90.4905   10.7846 C.ar    1  UNL1        0.0351
      7 C          61.9811   89.2397   10.5729 C.ar    1  UNL1        0.0722
      8 CL         61.0261   89.1466    9.4199 Cl      1  UNL1       -0.0809
      9 S          64.5369   91.8344   12.1493 S.O2    1  UNL1        0.0772
     10 O          64.0637   91.8966   13.5713 O.2     1  UNL1       -0.1498
     11 O          65.0102   91.7723   10.7272 O.2     1  UNL1       -0.1498
     12 N          65.3374   93.0852   12.3610 N.pl3   1  UNL1       -0.1936
     13 H          65.1834   93.8710   11.7882 H       1  UNL1        0.1758
     14 C          66.3723   93.1388   13.4454 C.ar    1  UNL1        0.1807
     15 N          66.4741   94.1844   14.5162 N.ar    1  UNL1       -0.2190
     16 C          67.6519   93.8480   15.3821 C.ar    1  UNL1        0.1372
     17 C          68.2781   92.5947   14.8464 C.ar    1  UNL1        0.1915
     18 F          69.4835   91.9013   15.4088 F       1  UNL1       -0.1953
     19 S          67.4873   92.1563   13.6494 S.2     1  UNL1       -0.0209
     20 N          61.3352   86.8313   11.3025 N.pl3   1  UNL1       -0.3309
     21 H          60.3799   86.8121   11.5398 H       1  UNL1        0.1469
     22 C          61.9902   85.6097   10.7292 C.3     1  UNL1        0.1030
     23 C          62.7155   84.6547   11.6302 C.3     1  UNL1        0.0738
     24 C          64.2416   82.8441   10.5613 C.3     1  UNL1        0.0859
     25 N          62.9401   83.2369   11.1953 N.3     1  UNL1       -0.2960
     26 H          62.8286   82.6534   12.0244 H       1  UNL1        0.1233
     27 C          63.2162   85.1177   12.9663 C.3     1  UNL1        0.0175
     28 C          63.4903   84.1191   14.0516 C.3     1  UNL1        0.0013
     29 C          64.9649   84.3218   13.8655 C.3     1  UNL1        0.0000
     30 C          62.0158   83.9164   14.2376 C.3     1  UNL1        0.0000
     31 C          63.7645   83.1206   15.1368 C.3     1  UNL1        0.0000
@<TRIPOS>BOND
     1    24    25    1
     2    25    23    1
     3    23    22    1
     4    22    20    1
     5    20     1    1
     6     1     2   ar
     7     2     3   ar
     8     3     4    1
     9     3     5   ar
    10     5     9    1
    11     9    10    2
    12     9    11    2
    13     9    12    1
    14    12    14    1
    15    14    15   ar
    16    15    16   ar
    17    16    17   ar
    18    17    18    1
    19    17    19   ar
    20     5     6   ar
    21     6     7   ar
    22     7     8    1
    23    23    27    1
    24    27    28    1
    25    28    29    1
    26    28    30    1
    27    28    31    1
    28     7     1   ar
    29    19    14   ar
    30    25    26    1
    31    20    21    1
    32    12    13    1
@<TRIPOS>MOLECULE
*****
 31 32 0 0 0
SMALL
GASTEIGER

@<TRIPOS>ATOM
      1 C          63.3405   88.6847   12.5175 C.ar    1  UNL1        0.0577
      2 C          62.8176   87.4702   11.8094 C.ar    1  UNL1        0.0462
      3 C          63.0239   86.1086   12.4037 C.ar    1  UNL1        0.1602
      4 F          62.5010   84.8940   11.6955 F       1  UNL1       -0.2027
      5 C          63.7531   85.9614   13.7062 C.ar    1  UNL1        0.1534
      6 C          64.2760   87.1759   14.4144 C.ar    1  UNL1        0.0351
      7 C          64.0697   88.5376   13.8200 C.ar    1  UNL1        0.0722
      8 CL         64.5926   89.7521   14.5282 Cl      1  UNL1       -0.0809
      9 S          63.9594   84.5997   14.3006 S.O2    1  UNL1        0.0772
     10 O          64.6789   84.1663   13.0578 O.2     1  UNL1       -0.1498
     11 O          63.2400   85.0331   15.5433 O.2     1  UNL1       -0.1498
     12 N          64.1658   83.2380   14.8949 N.pl3   1  UNL1       -0.1936
     13 H          64.8886   83.0898   15.5467 H       1  UNL1        0.1758
     14 C          63.2709   82.1022   14.4962 C.ar    1  UNL1        0.1807
     15 N          63.7187   80.7539   14.0147 N.ar    1  UNL1       -0.2190
     16 C          62.4957   79.9336   13.7298 C.ar    1  UNL1        0.1372
     17 C          61.2918   80.7748   14.0353 C.ar    1  UNL1        0.1915
     18 F          59.8603   80.3503   13.8923 F       1  UNL1       -0.1953
     19 S          61.7710   82.1151   14.5089 S.2     1  UNL1       -0.0209
     20 N          63.1341   90.0464   11.9232 N.pl3   1  UNL1       -0.3309
     21 H          63.7661   90.7733   12.1268 H       1  UNL1        0.1469
     22 C          61.9649   90.3006   11.0187 C.3     1  UNL1        0.1030
     23 C          61.0691   89.1674   10.6144 C.3     1  UNL1        0.0738
     24 C          59.1737   89.8131   12.2698 C.3     1  UNL1        0.0859
     25 N          59.9201   88.7695   11.4927 N.3     1  UNL1       -0.2960
     26 H          59.2382   88.3050   10.8931 H       1  UNL1        0.1233
     27 C          61.3223   88.4321    9.3317 C.3     1  UNL1        0.0175
     28 C          60.1953   87.7286    8.6354 C.3     1  UNL1        0.0013
     29 C          60.6575   86.4215    9.2079 C.3     1  UNL1        0.0000
     30 C          59.7330   89.0358    8.0629 C.3     1  UNL1        0.0000
     31 C          59.0682   87.0251    7.9391 C.3     1  UNL1        0.0000
@<TRIPOS>BOND
     1    24    25    1
     2    25    23    1
     3    23    22    1
     4    22    20    1
     5    20     1    1
     6     1     2   ar
     7     2     3   ar
     8     3     4    1
     9     3     5   ar
    10     5     9    1
    11     9    10    2
    12     9    11    2
    13     9    12    1
    14    12    14    1
    15    14    15   ar
    16    15    16   ar
    17    16    17   ar
    18    17    18    1
    19    17    19   ar
    20     5     6   ar
    21     6     7   ar
    22     7     8    1
    23    23    27    1
    24    27    28    1
    25    28    29    1
    26    28    30    1
    27    28    31    1
    28     7     1   ar
    29    19    14   ar
    30    25    26    1
    31    20    21    1
    32    12    13    1
@<TRIPOS>MOLECULE
*****
 31 32 0 0 0
SMALL
GASTEIGER

@<TRIPOS>ATOM
      1 C          63.1785   86.8895   12.9757 C.ar    1  UNL1        0.0577
      2 C          62.8367   88.0347   12.0692 C.ar    1  UNL1        0.0462
      3 C          63.3291   89.4155   12.3870 C.ar    1  UNL1        0.1602
      4 F          62.9873   90.5607   11.4804 F       1  UNL1       -0.2027
      5 C          64.1633   89.6511   13.6111 C.ar    1  UNL1        0.1534
      6 C          64.5051   88.5059   14.5175 C.ar    1  UNL1        0.0351
      7 C          64.0127   87.1251   14.1998 C.ar    1  UNL1        0.0722
      8 CL         64.3545   85.9799   15.1063 Cl      1  UNL1       -0.0809
      9 S          64.6557   91.0319   13.9288 S.O2    1  UNL1        0.0772
     10 O          63.6747   91.1214   15.0601 O.2     1  UNL1       -0.1498
     11 O          65.6366   90.9424   12.7976 O.2     1  UNL1       -0.1498
     12 N          65.1481   92.4127   14.2465 N.pl3   1  UNL1       -0.1936
     13 H          64.5867   93.1949   14.0411 H       1  UNL1        0.1758
     14 C          66.4958   92.6017   14.8773 C.ar    1  UNL1        0.1807
     15 N          67.3299   91.5293   15.5132 N.ar    1  UNL1       -0.2190
     16 C          68.5957   92.1611   16.0118 C.ar    1  UNL1        0.1372
     17 C          68.5440   93.6240   15.6841 C.ar    1  UNL1        0.1915
     18 F          69.6039   94.6367   16.0017 F       1  UNL1       -0.1953
     19 S          67.2461   93.8963   14.9829 S.2     1  UNL1       -0.0209
     20 N          62.6861   85.5087   12.6580 N.pl3   1  UNL1       -0.3309
     21 H          62.5194   84.8661   13.3850 H       1  UNL1        0.1469
     22 C          62.4477   85.1069   11.2326 C.3     1  UNL1        0.1030
     23 C          63.4107   84.1876   10.5414 C.3     1  UNL1        0.0738
     24 C          62.9533   85.3750    8.2763 C.3     1  UNL1        0.0859
     25 N          63.5613   84.2430    9.0501 N.3     1  UNL1       -0.2960
     26 H          64.5625   84.2576    8.8556 H       1  UNL1        0.1233
     27 C          64.2230   83.2130   11.3417 C.3     1  UNL1        0.0175
     28 C          63.5602   82.0245   11.9727 C.3     1  UNL1        0.0013
     29 C          63.9472   82.5299   13.3310 C.3     1  UNL1        0.0000
     30 C          63.1733   81.5191   10.6145 C.3     1  UNL1        0.0000
     31 C          62.8975   80.8360   12.6038 C.3     1  UNL1        0.0000
@<TRIPOS>BOND
     1    24    25    1
     2    25    23    1
     3    23    22    1
     4    22    20    1
     5    20     1    1
     6     1     2   ar
     7     2     3   ar
     8     3     4    1
     9     3     5   ar
    10     5     9    1
    11     9    10    2
    12     9    11    2
    13     9    12    1
    14    12    14    1
    15    14    15   ar
    16    15    16   ar
    17    16    17   ar
    18    17    18    1
    19    17    19   ar
    20     5     6   ar
    21     6     7   ar
    22     7     8    1
    23    23    27    1
    24    27    28    1
    25    28    29    1
    26    28    30    1
    27    28    31    1
    28     7     1   ar
    29    19    14   ar
    30    25    26    1
    31    20    21    1
    32    12    13    1
@<TRIPOS>MOLECULE
*****
 31 32 0 0 0
SMALL
GASTEIGER

@<TRIPOS>ATOM
      1 C          58.9609   90.6210    5.6003 C.ar    1  UNL1        0.0577
      2 C          60.4217   90.7187    5.2742 C.ar    1  UNL1        0.0462
      3 C          60.8849   91.6226    4.1704 C.ar    1  UNL1        0.1602
      4 F          62.3459   91.7203    3.8443 F       1  UNL1       -0.2027
      5 C          59.8874   92.4288    3.3927 C.ar    1  UNL1        0.1534
      6 C          58.4265   92.3311    3.7188 C.ar    1  UNL1        0.0351
      7 C          57.9633   91.4272    4.8226 C.ar    1  UNL1        0.0722
      8 CL         56.5024   91.3295    5.1487 Cl      1  UNL1       -0.0809
      9 S          60.3506   93.3327    2.2888 S.O2    1  UNL1        0.0772
     10 O          60.5582   92.1418    1.4008 O.2     1  UNL1       -0.1498
     11 O          60.1430   94.5236    3.1769 O.2     1  UNL1       -0.1498
     12 N          60.8139   94.2365    1.1850 N.pl3   1  UNL1       -0.1936
     13 H          60.2204   94.9461    0.8481 H       1  UNL1        0.1758
     14 C          62.1813   94.0593    0.5946 C.ar    1  UNL1        0.1807
     15 N          62.5284   94.1305   -0.8630 N.ar    1  UNL1       -0.2190
     16 C          64.0034   93.8950   -1.0004 C.ar    1  UNL1        0.1372
     17 C          64.5680   93.6783    0.3723 C.ar    1  UNL1        0.1915
     18 F          66.0062   93.4076    0.7015 F       1  UNL1       -0.1953
     19 S          63.4419   93.7799    1.3581 S.2     1  UNL1       -0.0209
     20 N          58.4976   89.7171    6.7041 N.pl3   1  UNL1       -0.3309
     21 H          57.6479   89.9002    7.1664 H       1  UNL1        0.1469
     22 C          59.3290   88.5343    7.1036 C.3     1  UNL1        0.1030
     23 C          60.0122   88.5144    8.4388 C.3     1  UNL1        0.0738
     24 C          60.0231   90.1471   10.4597 C.3     1  UNL1        0.0859
     25 N          60.4644   89.7982    9.0692 N.3     1  UNL1       -0.2960
     26 H          61.4841   89.7776    9.0803 H       1  UNL1        0.1233
     27 C          60.2433   87.2106    9.1437 C.3     1  UNL1        0.0175
     28 C          61.4755   86.4072    8.8498 C.3     1  UNL1        0.0013
     29 C          60.7826   85.7723    7.6807 C.3     1  UNL1        0.0000
     30 C          62.1683   87.0421   10.0189 C.3     1  UNL1        0.0000
     31 C          62.7076   85.6038    8.5558 C.3     1  UNL1        0.0000
@<TRIPOS>BOND
     1    24    25    1
     2    25    23    1
     3    23    22    1
     4    22    20    1
     5    20     1    1
     6     1     2   ar
     7     2     3   ar
     8     3     4    1
     9     3     5   ar
    10     5     9    1
    11     9    10    2
    12     9    11    2
    13     9    12    1
    14    12    14    1
    15    14    15   ar
    16    15    16   ar
    17    16    17   ar
    18    17    18    1
    19    17    19   ar
    20     5     6   ar
    21     6     7   ar
    22     7     8    1
    23    23    27    1
    24    27    28    1
    25    28    29    1
    26    28    30    1
    27    28    31    1
    28     7     1   ar
    29    19    14   ar
    30    25    26    1
    31    20    21    1
    32    12    13    1
