@<TRIPOS>MOLECULE
*****
 32 36 0 0 0
SMALL
GASTEIGER

@<TRIPOS>ATOM
      1 C          63.0534   86.3754   12.5911 C.2     1  UNL1        0.2506
      2 O          63.6730   87.2738   13.6202 O.2     1  UNL1       -0.2699
      3 N          62.1827   86.9552   11.5161 N.am    1  UNL1       -0.2723
      4 C          61.5630   86.0569   10.4870 C.3     1  UNL1        0.1257
      5 C          60.6923   86.6367    9.4119 C.3     1  UNL1        0.1637
      6 O          60.4412   88.1148    9.3660 O.3     1  UNL1       -0.3502
      7 C          61.0608   89.0131   10.3951 C.3     1  UNL1        0.1622
      8 C          61.9315   88.4334   11.4701 C.3     1  UNL1        0.1096
      9 C          64.0659   81.9048   10.1440 C.3     1  UNL1        0.0310
     10 C          63.8107   82.6620   11.4134 C.ar    1  UNL1       -0.0216
     11 C          63.8068   81.9411   12.7288 C.ar    1  UNL1       -0.0026
     12 C          63.5517   82.6983   13.9983 C.ar    1  UNL1        0.0207
     13 C          63.3005   84.1764   13.9524 C.ar    1  UNL1        0.1072
     14 C          63.3045   84.8973   12.6370 C.ar    1  UNL1        0.0726
     15 C          63.5596   84.1401   11.3675 C.ar    1  UNL1        0.0018
     16 N          63.0454   84.9336   15.2219 N.ar    1  UNL1       -0.1477
     17 N          61.7143   85.1114   15.8901 N.ar    1  UNL1       -0.1447
     18 C          61.9229   85.9337   17.1272 C.ar    1  UNL1        0.1446
     19 C          63.3829   86.2640   17.2236 C.ar    1  UNL1        0.1446
     20 N          64.0766   85.6459   16.0460 N.ar    1  UNL1       -0.1447
     21 C          62.5512   89.3317   12.4992 C.3     1  UNL1        0.0487
     22 C          63.4829   90.4278   12.0745 C.ar    1  UNL1       -0.0203
     23 C          63.3463   91.0428   10.7133 C.ar    1  UNL1       -0.0042
     24 C          64.2781   92.1390   10.2886 C.ar    1  UNL1       -0.0002
     25 C          65.3464   92.6201   11.2252 C.ar    1  UNL1        0.0031
     26 C          65.4830   92.0050   12.5865 C.ar    1  UNL1        0.0388
     27 C          64.5513   90.9089   13.0111 C.ar    1  UNL1       -0.0011
     28 C          66.5514   92.4860   13.5231 C.ar    1  UNL1        0.2037
     29 N          66.3414   93.3513   14.7302 N.ar    1  UNL1       -0.1829
     30 C          67.6775   93.5864   15.3702 C.ar    1  UNL1        0.3164
     31 O          68.7133   92.8663   14.5585 O.2     1  UNL1       -0.3274
     32 N          68.0173   92.1863   13.4169 N.ar    1  UNL1       -0.0554
@<TRIPOS>BOND
     1     9    10    1
     2    10    11   ar
     3    11    12   ar
     4    12    13   ar
     5    13    16    1
     6    16    17   ar
     7    17    18   ar
     8    18    19   ar
     9    19    20   ar
    10    13    14   ar
    11    14     1    1
    12     1     2    2
    13     1     3   am
    14     3     4    1
    15     4     5    1
    16     5     6    1
    17     6     7    1
    18     7     8    1
    19     8    21    1
    20    21    22    1
    21    22    23   ar
    22    23    24   ar
    23    24    25   ar
    24    25    26   ar
    25    26    28    1
    26    28    29   ar
    27    29    30   ar
    28    30    31   ar
    29    31    32   ar
    30    26    27   ar
    31    14    15   ar
    32    15    10   ar
    33    20    16   ar
    34     8     3    1
    35    27    22   ar
    36    32    28   ar
@<TRIPOS>MOLECULE
*****
 32 36 0 0 0
SMALL
GASTEIGER

@<TRIPOS>ATOM
      1 C          62.6542   88.2334   10.9336 C.2     1  UNL1        0.2506
      2 O          63.0239   89.6724   10.7272 O.2     1  UNL1       -0.2699
      3 N          63.0909   87.5178   12.1774 N.am    1  UNL1       -0.2723
      4 C          62.7212   86.0788   12.3837 C.3     1  UNL1        0.1257
      5 C          63.1579   85.3631   13.6276 C.3     1  UNL1        0.1637
      6 O          63.9643   86.0865   14.6651 O.3     1  UNL1       -0.3502
      7 C          64.3340   87.5255   14.4588 C.3     1  UNL1        0.1622
      8 C          63.8973   88.2411   13.2150 C.3     1  UNL1        0.1096
      9 C          62.3640   84.7847    7.0577 C.3     1  UNL1        0.0310
     10 C          61.7027   85.7857    7.9581 C.ar    1  UNL1       -0.0216
     11 C          60.2351   86.0633    7.8209 C.ar    1  UNL1       -0.0026
     12 C          59.5738   87.0643    8.7213 C.ar    1  UNL1        0.0207
     13 C          60.3801   87.7876    9.7589 C.ar    1  UNL1        0.1072
     14 C          61.8478   87.5100    9.8960 C.ar    1  UNL1        0.0726
     15 C          62.5091   86.5090    8.9956 C.ar    1  UNL1        0.0018
     16 N          59.7188   88.7886   10.6592 N.ar    1  UNL1       -0.1477
     17 N          59.6072   90.2630   10.4070 N.ar    1  UNL1       -0.1447
     18 C          58.8724   90.8766   11.5618 C.ar    1  UNL1        0.1446
     19 C          58.5299   89.7814   12.5278 C.ar    1  UNL1        0.1446
     20 N          59.0530   88.4910   11.9700 N.ar    1  UNL1       -0.1447
     21 C          64.2670   89.6801   13.0086 C.3     1  UNL1        0.0487
     22 C          64.6371   90.5354   14.1840 C.ar    1  UNL1       -0.0203
     23 C          63.6860   90.6809   15.3346 C.ar    1  UNL1       -0.0042
     24 C          64.0561   91.5362   16.5101 C.ar    1  UNL1       -0.0002
     25 C          65.3773   92.2459   16.5348 C.ar    1  UNL1        0.0031
     26 C          66.3285   92.1003   15.3841 C.ar    1  UNL1        0.0388
     27 C          65.9584   91.2451   14.2087 C.ar    1  UNL1       -0.0011
     28 C          67.6497   92.8100   15.4088 C.ar    1  UNL1        0.2037
     29 N          68.0387   93.9168   16.3435 N.ar    1  UNL1       -0.1829
     30 C          69.4434   94.3284   16.0155 C.ar    1  UNL1        0.3164
     31 O          69.9225   93.4760   14.8780 O.2     1  UNL1       -0.3274
     32 N          68.8140   92.5376   14.5030 N.ar    1  UNL1       -0.0554
@<TRIPOS>BOND
     1     9    10    1
     2    10    11   ar
     3    11    12   ar
     4    12    13   ar
     5    13    16    1
     6    16    17   ar
     7    17    18   ar
     8    18    19   ar
     9    19    20   ar
    10    13    14   ar
    11    14     1    1
    12     1     2    2
    13     1     3   am
    14     3     4    1
    15     4     5    1
    16     5     6    1
    17     6     7    1
    18     7     8    1
    19     8    21    1
    20    21    22    1
    21    22    23   ar
    22    23    24   ar
    23    24    25   ar
    24    25    26   ar
    25    26    28    1
    26    28    29   ar
    27    29    30   ar
    28    30    31   ar
    29    31    32   ar
    30    26    27   ar
    31    14    15   ar
    32    15    10   ar
    33    20    16   ar
    34     8     3    1
    35    27    22   ar
    36    32    28   ar
@<TRIPOS>MOLECULE
*****
 32 36 0 0 0
SMALL
GASTEIGER

@<TRIPOS>ATOM
      1 C          62.6584   88.5397   11.5110 C.2     1  UNL1        0.2506
      2 O          62.6571   90.0391   11.4693 O.2     1  UNL1       -0.2699
      3 N          63.3040   87.8219   12.6590 N.am    1  UNL1       -0.2723
      4 C          63.3053   86.3225   12.7008 C.3     1  UNL1        0.1257
      5 C          63.9510   85.6047   13.8489 C.3     1  UNL1        0.1637
      6 O          64.5952   86.3864   14.9551 O.3     1  UNL1       -0.3502
      7 C          64.5939   87.8858   14.9134 C.3     1  UNL1        0.1622
      8 C          63.9483   88.6035   13.7654 C.3     1  UNL1        0.1096
      9 C          62.9754   84.9750    7.7437 C.3     1  UNL1        0.0310
     10 C          62.1727   85.9757    8.5210 C.ar    1  UNL1       -0.0216
     11 C          60.7257   86.1947    8.1920 C.ar    1  UNL1       -0.0026
     12 C          59.9230   87.1954    8.9693 C.ar    1  UNL1        0.0207
     13 C          60.5672   87.9771   10.0756 C.ar    1  UNL1        0.1072
     14 C          62.0141   87.7580   10.4046 C.ar    1  UNL1        0.0726
     15 C          62.8169   86.7573    9.6273 C.ar    1  UNL1        0.0018
     16 N          59.7645   88.9778   10.8529 N.ar    1  UNL1       -0.1477
     17 N          59.0233   88.7130   12.1298 N.ar    1  UNL1       -0.1447
     18 C          58.3627   89.9905   12.5559 C.ar    1  UNL1        0.1446
     19 C          58.6956   91.0449   11.5423 C.ar    1  UNL1        0.1446
     20 N          59.5619   90.4190   10.4898 N.ar    1  UNL1       -0.1447
     21 C          63.9469   90.1030   13.7237 C.3     1  UNL1        0.0487
     22 C          65.2452   90.8534   13.6865 C.ar    1  UNL1       -0.0203
     23 C          66.1414   90.8616   14.8892 C.ar    1  UNL1       -0.0042
     24 C          67.4397   91.6120   14.8521 C.ar    1  UNL1       -0.0002
     25 C          67.8417   92.3542   13.6121 C.ar    1  UNL1        0.0031
     26 C          66.9454   92.3460   12.4093 C.ar    1  UNL1        0.0388
     27 C          65.6472   91.5956   12.4465 C.ar    1  UNL1       -0.0011
     28 C          67.3474   93.0882   11.1693 C.ar    1  UNL1        0.2037
     29 N          66.9022   94.4678   10.7842 N.ar    1  UNL1       -0.1829
     30 C          67.5449   94.8134    9.4736 C.ar    1  UNL1        0.3164
     31 O          68.3873   93.6473    9.0488 O.2     1  UNL1       -0.3274
     32 N          68.2654   92.5810   10.0968 N.ar    1  UNL1       -0.0554
@<TRIPOS>BOND
     1     9    10    1
     2    10    11   ar
     3    11    12   ar
     4    12    13   ar
     5    13    16    1
     6    16    17   ar
     7    17    18   ar
     8    18    19   ar
     9    19    20   ar
    10    13    14   ar
    11    14     1    1
    12     1     2    2
    13     1     3   am
    14     3     4    1
    15     4     5    1
    16     5     6    1
    17     6     7    1
    18     7     8    1
    19     8    21    1
    20    21    22    1
    21    22    23   ar
    22    23    24   ar
    23    24    25   ar
    24    25    26   ar
    25    26    28    1
    26    28    29   ar
    27    29    30   ar
    28    30    31   ar
    29    31    32   ar
    30    26    27   ar
    31    14    15   ar
    32    15    10   ar
    33    20    16   ar
    34     8     3    1
    35    27    22   ar
    36    32    28   ar
@<TRIPOS>MOLECULE
*****
 32 36 0 0 0
SMALL
GASTEIGER

@<TRIPOS>ATOM
      1 C          62.7196   87.3839   11.6702 C.2     1  UNL1        0.2506
      2 O          63.6557   87.8094   12.7623 O.2     1  UNL1       -0.2699
      3 N          61.6261   88.3058   11.2182 N.am    1  UNL1       -0.2723
      4 C          60.6900   87.8803   10.1261 C.3     1  UNL1        0.1257
      5 C          59.5964   88.8022    9.6741 C.3     1  UNL1        0.1637
      6 O          59.4390   90.1496   10.3143 O.3     1  UNL1       -0.3502
      7 C          60.3751   90.5751   11.4064 C.3     1  UNL1        0.1622
      8 C          61.4686   89.6532   11.8583 C.3     1  UNL1        0.1096
      9 C          62.8496   84.4142    7.4083 C.3     1  UNL1        0.0310
     10 C          62.9421   84.5516    8.8991 C.ar    1  UNL1       -0.0216
     11 C          63.1920   83.3418    9.7498 C.ar    1  UNL1       -0.0026
     12 C          63.2845   83.4793   11.2406 C.ar    1  UNL1        0.0207
     13 C          63.1270   84.8266   11.8808 C.ar    1  UNL1        0.1072
     14 C          62.8771   86.0365   11.0301 C.ar    1  UNL1        0.0726
     15 C          62.7846   85.8990    9.5393 C.ar    1  UNL1        0.0018
     16 N          63.2195   84.9641   13.3716 N.ar    1  UNL1       -0.1477
     17 N          62.0897   84.7979   14.3441 N.ar    1  UNL1       -0.1447
     18 C          62.6299   85.0230   15.7252 C.ar    1  UNL1        0.1446
     19 C          64.0937   85.3284   15.6063 C.ar    1  UNL1        0.1446
     20 N          64.4580   85.2920   14.1517 N.ar    1  UNL1       -0.1447
     21 C          62.4047   90.0787   12.9504 C.3     1  UNL1        0.0487
     22 C          63.6114   90.9075   12.6234 C.ar    1  UNL1       -0.0203
     23 C          63.8055   91.4330   11.2319 C.ar    1  UNL1       -0.0042
     24 C          65.0122   92.2619   10.9048 C.ar    1  UNL1       -0.0002
     25 C          66.0247   92.5652   11.9692 C.ar    1  UNL1        0.0031
     26 C          65.8305   92.0397   13.3607 C.ar    1  UNL1        0.0388
     27 C          64.6239   91.2109   13.6877 C.ar    1  UNL1       -0.0011
     28 C          66.8430   92.3430   14.4250 C.ar    1  UNL1        0.2037
     29 N          68.3221   92.4848   14.2201 N.ar    1  UNL1       -0.1829
     30 C          68.9474   92.7872   15.5496 C.ar    1  UNL1        0.3164
     31 O          67.8547   92.8324   16.5762 O.2     1  UNL1       -0.3274
     32 N          66.5540   92.5579   15.8812 N.ar    1  UNL1       -0.0554
@<TRIPOS>BOND
     1     9    10    1
     2    10    11   ar
     3    11    12   ar
     4    12    13   ar
     5    13    16    1
     6    16    17   ar
     7    17    18   ar
     8    18    19   ar
     9    19    20   ar
    10    13    14   ar
    11    14     1    1
    12     1     2    2
    13     1     3   am
    14     3     4    1
    15     4     5    1
    16     5     6    1
    17     6     7    1
    18     7     8    1
    19     8    21    1
    20    21    22    1
    21    22    23   ar
    22    23    24   ar
    23    24    25   ar
    24    25    26   ar
    25    26    28    1
    26    28    29   ar
    27    29    30   ar
    28    30    31   ar
    29    31    32   ar
    30    26    27   ar
    31    14    15   ar
    32    15    10   ar
    33    20    16   ar
    34     8     3    1
    35    27    22   ar
    36    32    28   ar
@<TRIPOS>MOLECULE
*****
 32 36 0 0 0
SMALL
GASTEIGER

@<TRIPOS>ATOM
      1 C          62.7390   87.3088   11.7629 C.2     1  UNL1        0.2506
      2 O          63.4205   87.4686   13.0895 O.2     1  UNL1       -0.2699
      3 N          61.8970   88.4218   11.2133 N.am    1  UNL1       -0.2723
      4 C          61.2155   88.2620    9.8867 C.3     1  UNL1        0.1257
      5 C          60.3734   89.3752    9.3371 C.3     1  UNL1        0.1637
      6 O          60.2130   90.6481   10.1142 O.3     1  UNL1       -0.3502
      7 C          60.8945   90.8079   11.4409 C.3     1  UNL1        0.1622
      8 C          61.7365   89.6948   11.9904 C.3     1  UNL1        0.1096
      9 C          62.8323   84.7927    7.2175 C.3     1  UNL1        0.0310
     10 C          62.9462   84.7778    8.7131 C.ar    1  UNL1       -0.0216
     11 C          63.2205   83.4900    9.4316 C.ar    1  UNL1       -0.0026
     12 C          63.3344   83.4751   10.9272 C.ar    1  UNL1        0.0207
     13 C          63.1739   84.7480   11.7043 C.ar    1  UNL1        0.1072
     14 C          62.8995   86.0358   10.9858 C.ar    1  UNL1        0.0726
     15 C          62.7857   86.0507    9.4902 C.ar    1  UNL1        0.0018
     16 N          63.2878   84.7331   13.1999 N.ar    1  UNL1       -0.1477
     17 N          62.1447   84.7170   14.1710 N.ar    1  UNL1       -0.1447
     18 C          62.7152   84.7057   15.5583 C.ar    1  UNL1        0.1446
     19 C          64.2108   84.7147   15.4445 C.ar    1  UNL1        0.1446
     20 N          64.5647   84.7317   13.9870 N.ar    1  UNL1       -0.1447
     21 C          62.4180   89.8547   13.3171 C.3     1  UNL1        0.0487
     22 C          63.7382   90.5616   13.4017 C.ar    1  UNL1       -0.0203
     23 C          64.5702   90.4501   14.6448 C.ar    1  UNL1       -0.0042
     24 C          65.8905   91.1571   14.7294 C.ar    1  UNL1       -0.0002
     25 C          66.3787   91.9755   13.5710 C.ar    1  UNL1        0.0031
     26 C          65.5465   92.0870   12.3279 C.ar    1  UNL1        0.0388
     27 C          64.2263   91.3800   12.2433 C.ar    1  UNL1       -0.0011
     28 C          66.0347   92.9054   11.1695 C.ar    1  UNL1        0.2037
     29 N          67.1743   92.5540   10.2598 N.ar    1  UNL1       -0.1829
     30 C          67.3129   93.6503    9.2455 C.ar    1  UNL1        0.3164
     31 O          66.2588   94.6794    9.5283 O.2     1  UNL1       -0.3274
     32 N          65.4688   94.2191   10.7175 N.ar    1  UNL1       -0.0554
@<TRIPOS>BOND
     1     9    10    1
     2    10    11   ar
     3    11    12   ar
     4    12    13   ar
     5    13    16    1
     6    16    17   ar
     7    17    18   ar
     8    18    19   ar
     9    19    20   ar
    10    13    14   ar
    11    14     1    1
    12     1     2    2
    13     1     3   am
    14     3     4    1
    15     4     5    1
    16     5     6    1
    17     6     7    1
    18     7     8    1
    19     8    21    1
    20    21    22    1
    21    22    23   ar
    22    23    24   ar
    23    24    25   ar
    24    25    26   ar
    25    26    28    1
    26    28    29   ar
    27    29    30   ar
    28    30    31   ar
    29    31    32   ar
    30    26    27   ar
    31    14    15   ar
    32    15    10   ar
    33    20    16   ar
    34     8     3    1
    35    27    22   ar
    36    32    28   ar
@<TRIPOS>MOLECULE
*****
 32 36 0 0 0
SMALL
GASTEIGER

@<TRIPOS>ATOM
      1 C          63.3290   86.9687   13.0840 C.2     1  UNL1        0.2506
      2 O          63.8066   87.6270   14.3444 O.2     1  UNL1       -0.2699
      3 N          62.7860   87.8025   11.9616 N.am    1  UNL1       -0.2723
      4 C          62.3084   87.1442   10.7013 C.3     1  UNL1        0.1257
      5 C          61.7653   87.9781    9.5789 C.3     1  UNL1        0.1637
      6 O          61.6998   89.4703    9.7169 O.3     1  UNL1       -0.3502
      7 C          62.1774   90.1286   10.9772 C.3     1  UNL1        0.1622
      8 C          62.7205   89.2948   12.0996 C.3     1  UNL1        0.1096
      9 C          63.9618   82.7468   10.1216 C.3     1  UNL1        0.0310
     10 C          63.7109   83.3655   11.4648 C.ar    1  UNL1       -0.0216
     11 C          63.5255   82.4921   12.6701 C.ar    1  UNL1       -0.0026
     12 C          63.2746   83.1108   14.0133 C.ar    1  UNL1        0.0207
     13 C          63.2091   84.6029   14.1513 C.ar    1  UNL1        0.1072
     14 C          63.3945   85.4764   12.9461 C.ar    1  UNL1        0.0726
     15 C          63.6454   84.8577   11.6028 C.ar    1  UNL1        0.0018
     16 N          62.9583   85.2217   15.4945 N.ar    1  UNL1       -0.1477
     17 N          64.0040   85.7501   16.4311 N.ar    1  UNL1       -0.1447
     18 C          63.3097   86.2756   17.6524 C.ar    1  UNL1        0.1446
     19 C          61.8347   86.0719   17.4707 C.ar    1  UNL1        0.1446
     20 N          61.6176   85.4206   16.1371 N.ar    1  UNL1       -0.1447
     21 C          63.1981   89.9531   13.3600 C.3     1  UNL1        0.0487
     22 C          64.4736   90.7423   13.3570 C.ar    1  UNL1       -0.0203
     23 C          65.4376   90.6140   14.4990 C.ar    1  UNL1       -0.0042
     24 C          66.7132   91.4032   14.4961 C.ar    1  UNL1       -0.0002
     25 C          67.0248   92.3208   13.3511 C.ar    1  UNL1        0.0031
     26 C          66.0608   92.4491   12.2090 C.ar    1  UNL1        0.0388
     27 C          64.7852   91.6599   12.2120 C.ar    1  UNL1       -0.0011
     28 C          66.3724   93.3666   11.0640 C.ar    1  UNL1        0.2037
     29 N          67.5285   93.2343   10.1175 N.ar    1  UNL1       -0.1829
     30 C          67.4532   94.3634    9.1330 C.ar    1  UNL1        0.3164
     31 O          66.2505   95.1937    9.4710 O.2     1  UNL1       -0.3274
     32 N          65.5825   94.5777   10.6644 N.ar    1  UNL1       -0.0554
@<TRIPOS>BOND
     1     9    10    1
     2    10    11   ar
     3    11    12   ar
     4    12    13   ar
     5    13    16    1
     6    16    17   ar
     7    17    18   ar
     8    18    19   ar
     9    19    20   ar
    10    13    14   ar
    11    14     1    1
    12     1     2    2
    13     1     3   am
    14     3     4    1
    15     4     5    1
    16     5     6    1
    17     6     7    1
    18     7     8    1
    19     8    21    1
    20    21    22    1
    21    22    23   ar
    22    23    24   ar
    23    24    25   ar
    24    25    26   ar
    25    26    28    1
    26    28    29   ar
    27    29    30   ar
    28    30    31   ar
    29    31    32   ar
    30    26    27   ar
    31    14    15   ar
    32    15    10   ar
    33    20    16   ar
    34     8     3    1
    35    27    22   ar
    36    32    28   ar
@<TRIPOS>MOLECULE
*****
 32 36 0 0 0
SMALL
GASTEIGER

@<TRIPOS>ATOM
      1 C          62.3922   84.7206   12.1797 C.2     1  UNL1        0.2506
      2 O          61.8475   85.7739   13.0983 O.2     1  UNL1       -0.2699
      3 N          62.6110   85.0312   10.7287 N.am    1  UNL1       -0.2723
      4 C          63.1557   83.9779    9.8100 C.3     1  UNL1        0.1257
      5 C          63.3744   84.2885    8.3589 C.3     1  UNL1        0.1637
      6 O          63.0484   85.6524    7.8264 O.3     1  UNL1       -0.3502
      7 C          62.5036   86.7057    8.7450 C.3     1  UNL1        0.1622
      8 C          62.2849   86.3951   10.1961 C.3     1  UNL1        0.1096
      9 C          62.7422   79.5832   11.4834 C.3     1  UNL1        0.0310
     10 C          62.8932   80.7880   12.3641 C.ar    1  UNL1       -0.0216
     11 C          63.3703   80.6290   13.7772 C.ar    1  UNL1       -0.0026
     12 C          63.5214   81.8338   14.6579 C.ar    1  UNL1        0.0207
     13 C          63.1954   83.1977   14.1254 C.ar    1  UNL1        0.1072
     14 C          62.7183   83.3567   12.7123 C.ar    1  UNL1        0.0726
     15 C          62.5672   82.1519   11.8316 C.ar    1  UNL1        0.0018
     16 N          63.3465   84.4025   15.0061 N.ar    1  UNL1       -0.1477
     17 N          64.4599   85.4057   14.9444 N.ar    1  UNL1       -0.1447
     18 C          64.2122   86.4389   16.0033 C.ar    1  UNL1        0.1446
     19 C          62.9457   86.0742   16.7194 C.ar    1  UNL1        0.1446
     20 N          62.4106   84.8156   16.1032 N.ar    1  UNL1       -0.1447
     21 C          61.7402   87.4484   11.1147 C.3     1  UNL1        0.0487
     22 C          62.3713   88.8085   11.1541 C.ar    1  UNL1       -0.0203
     23 C          62.3382   89.6862    9.9381 C.ar    1  UNL1       -0.0042
     24 C          62.9693   91.0464    9.9775 C.ar    1  UNL1       -0.0002
     25 C          63.6336   91.5289   11.2329 C.ar    1  UNL1        0.0031
     26 C          63.6666   90.6512   12.4489 C.ar    1  UNL1        0.0388
     27 C          63.0355   89.2911   12.4095 C.ar    1  UNL1       -0.0011
     28 C          64.3309   91.1338   13.7042 C.ar    1  UNL1        0.2037
     29 N          65.7741   91.5170   13.8468 N.ar    1  UNL1       -0.1829
     30 C          66.0037   91.9379   15.2682 C.ar    1  UNL1        0.3164
     31 O          64.7024   91.8148   16.0040 O.2     1  UNL1       -0.3274
     32 N          63.6685   91.3178   15.0375 N.ar    1  UNL1       -0.0554
@<TRIPOS>BOND
     1     9    10    1
     2    10    11   ar
     3    11    12   ar
     4    12    13   ar
     5    13    16    1
     6    16    17   ar
     7    17    18   ar
     8    18    19   ar
     9    19    20   ar
    10    13    14   ar
    11    14     1    1
    12     1     2    2
    13     1     3   am
    14     3     4    1
    15     4     5    1
    16     5     6    1
    17     6     7    1
    18     7     8    1
    19     8    21    1
    20    21    22    1
    21    22    23   ar
    22    23    24   ar
    23    24    25   ar
    24    25    26   ar
    25    26    28    1
    26    28    29   ar
    27    29    30   ar
    28    30    31   ar
    29    31    32   ar
    30    26    27   ar
    31    14    15   ar
    32    15    10   ar
    33    20    16   ar
    34     8     3    1
    35    27    22   ar
    36    32    28   ar
@<TRIPOS>MOLECULE
*****
 32 36 0 0 0
SMALL
GASTEIGER

@<TRIPOS>ATOM
      1 C          63.4157   88.0270   13.1788 C.2     1  UNL1        0.2506
      2 O          63.6590   89.1159   12.1762 O.2     1  UNL1       -0.2699
      3 N          63.3587   88.3536   14.6417 N.am    1  UNL1       -0.2723
      4 C          63.1154   87.2647   15.6443 C.3     1  UNL1        0.1257
      5 C          63.0585   87.5913   17.1073 C.3     1  UNL1        0.1637
      6 O          63.2448   89.0067   17.5676 O.3     1  UNL1       -0.3502
      7 C          63.4881   90.0955   16.5650 C.3     1  UNL1        0.1622
      8 C          63.5451   89.7690   15.1021 C.3     1  UNL1        0.1096
      9 C          64.5355   82.9711   13.6079 C.3     1  UNL1        0.0310
     10 C          63.7893   84.0837   12.9330 C.ar    1  UNL1       -0.0216
     11 C          62.8567   83.7808   11.7979 C.ar    1  UNL1       -0.0026
     12 C          62.1105   84.8933   11.1230 C.ar    1  UNL1        0.0207
     13 C          62.2968   86.3087   11.5833 C.ar    1  UNL1        0.1072
     14 C          63.2293   86.6116   12.7185 C.ar    1  UNL1        0.0726
     15 C          63.9756   85.4990   13.3933 C.ar    1  UNL1        0.0018
     16 N          61.5506   87.4213   10.9084 N.ar    1  UNL1       -0.1477
     17 N          61.8239   87.9607    9.5357 N.ar    1  UNL1       -0.1447
     18 C          60.8423   89.0625    9.2667 C.ar    1  UNL1        0.1446
     19 C          59.9623   89.2041   10.4731 C.ar    1  UNL1        0.1446
     20 N          60.4001   88.1897   11.4878 N.ar    1  UNL1       -0.1447
     21 C          63.7884   90.8579   14.0995 C.3     1  UNL1        0.0487
     22 C          65.1842   91.3440   13.8441 C.ar    1  UNL1       -0.0203
     23 C          66.2257   91.2316   14.9177 C.ar    1  UNL1       -0.0042
     24 C          67.6216   91.7178   14.6623 C.ar    1  UNL1       -0.0002
     25 C          67.9760   92.3162   13.3332 C.ar    1  UNL1        0.0031
     26 C          66.9344   92.4285   12.2596 C.ar    1  UNL1        0.0388
     27 C          65.5386   91.9424   12.5150 C.ar    1  UNL1       -0.0011
     28 C          67.2888   93.0269   10.9306 C.ar    1  UNL1        0.2037
     29 N          67.1406   94.4690   10.5453 N.ar    1  UNL1       -0.1829
     30 C          67.6138   94.6217    9.1301 C.ar    1  UNL1        0.3164
     31 O          68.0544   93.2740    8.6407 O.2     1  UNL1       -0.3274
     32 N          67.8536   92.2883    9.7534 N.ar    1  UNL1       -0.0554
@<TRIPOS>BOND
     1     9    10    1
     2    10    11   ar
     3    11    12   ar
     4    12    13   ar
     5    13    16    1
     6    16    17   ar
     7    17    18   ar
     8    18    19   ar
     9    19    20   ar
    10    13    14   ar
    11    14     1    1
    12     1     2    2
    13     1     3   am
    14     3     4    1
    15     4     5    1
    16     5     6    1
    17     6     7    1
    18     7     8    1
    19     8    21    1
    20    21    22    1
    21    22    23   ar
    22    23    24   ar
    23    24    25   ar
    24    25    26   ar
    25    26    28    1
    26    28    29   ar
    27    29    30   ar
    28    30    31   ar
    29    31    32   ar
    30    26    27   ar
    31    14    15   ar
    32    15    10   ar
    33    20    16   ar
    34     8     3    1
    35    27    22   ar
    36    32    28   ar
@<TRIPOS>MOLECULE
*****
 32 36 0 0 0
SMALL
GASTEIGER

@<TRIPOS>ATOM
      1 C          62.8613   88.8598   12.0233 C.2     1  UNL1        0.2506
      2 O          62.9434   87.6308   12.8793 O.2     1  UNL1       -0.2699
      3 N          61.9104   88.9043   10.8642 N.am    1  UNL1       -0.2723
      4 C          61.8283   90.1334   10.0082 C.3     1  UNL1        0.1257
      5 C          60.8773   90.1779    8.8490 C.3     1  UNL1        0.1637
      6 O          60.0084   88.9933    8.5458 O.3     1  UNL1       -0.3502
      7 C          60.0905   87.7643    9.4018 C.3     1  UNL1        0.1622
      8 C          61.0415   87.7198   10.5610 C.3     1  UNL1        0.1096
      9 C          65.3612   93.1303   10.4380 C.3     1  UNL1        0.0310
     10 C          64.9802   92.1796   11.5338 C.ar    1  UNL1       -0.0216
     11 C          65.4680   92.4134   12.9329 C.ar    1  UNL1       -0.0026
     12 C          65.0869   91.4627   14.0287 C.ar    1  UNL1        0.0207
     13 C          64.2181   90.2782   13.7256 C.ar    1  UNL1        0.1072
     14 C          63.7303   90.0444   12.3266 C.ar    1  UNL1        0.0726
     15 C          64.1113   90.9951   11.2307 C.ar    1  UNL1        0.0018
     16 N          63.8370   89.3275   14.8215 N.ar    1  UNL1       -0.1477
     17 N          64.3280   87.9187   14.9768 N.ar    1  UNL1       -0.1447
     18 C          63.6925   87.3391   16.2058 C.ar    1  UNL1        0.1446
     19 C          62.8087   88.3898   16.8099 C.ar    1  UNL1        0.1446
     20 N          62.8980   89.6186   15.9544 N.ar    1  UNL1       -0.1447
     21 C          61.1236   86.4907   11.4170 C.3     1  UNL1        0.0487
     22 C          62.0117   85.3521   11.0112 C.ar    1  UNL1       -0.0203
     23 C          62.7290   85.3929    9.6945 C.ar    1  UNL1       -0.0042
     24 C          63.6172   84.2542    9.2887 C.ar    1  UNL1       -0.0002
     25 C          63.7881   83.0749   10.1997 C.ar    1  UNL1        0.0031
     26 C          63.0708   83.0342   11.5165 C.ar    1  UNL1        0.0388
     27 C          62.1827   84.1728   11.9222 C.ar    1  UNL1       -0.0011
     28 C          63.2418   81.8548   12.4275 C.ar    1  UNL1        0.2037
     29 N          62.5129   80.5479   12.3241 N.ar    1  UNL1       -0.1829
     30 C          62.9922   79.6607   13.4346 C.ar    1  UNL1        0.3164
     31 O          64.0174   80.4193   14.2243 O.2     1  UNL1       -0.3274
     32 N          64.1716   81.7754   13.6019 N.ar    1  UNL1       -0.0554
@<TRIPOS>BOND
     1     9    10    1
     2    10    11   ar
     3    11    12   ar
     4    12    13   ar
     5    13    16    1
     6    16    17   ar
     7    17    18   ar
     8    18    19   ar
     9    19    20   ar
    10    13    14   ar
    11    14     1    1
    12     1     2    2
    13     1     3   am
    14     3     4    1
    15     4     5    1
    16     5     6    1
    17     6     7    1
    18     7     8    1
    19     8    21    1
    20    21    22    1
    21    22    23   ar
    22    23    24   ar
    23    24    25   ar
    24    25    26   ar
    25    26    28    1
    26    28    29   ar
    27    29    30   ar
    28    30    31   ar
    29    31    32   ar
    30    26    27   ar
    31    14    15   ar
    32    15    10   ar
    33    20    16   ar
    34     8     3    1
    35    27    22   ar
    36    32    28   ar
