@<TRIPOS>MOLECULE
*****
 24 28 0 0 0
SMALL
GASTEIGER

@<TRIPOS>ATOM
      1 N          63.3016   86.5906   12.7789 N.pl3   1  UNL1       -0.2536
      2 H          64.0526   87.0781   13.1883 H       1  UNL1        0.1579
      3 C          62.9805   85.1953   13.2260 C.2     1  UNL1        0.2847
      4 N          62.5045   84.7943   14.5908 N.2     1  UNL1       -0.2204
      5 C          62.3088   83.3071   14.5951 C.3     1  UNL1        0.1712
      6 C          62.6638   82.7889   13.2330 C.3     1  UNL1        0.1729
      7 C          63.0505   82.4195   11.8316 C.3     1  UNL1        0.1147
      8 N          62.9994   80.9860   11.3926 N.3     1  UNL1       -0.2697
      9 C          62.5617   79.9221   12.3551 C.3     1  UNL1        0.0723
     10 C          62.1750   80.2916   13.7565 C.3     1  UNL1        0.0209
     11 C          62.2261   81.7250   14.1954 C.3     1  UNL1        0.0429
     12 C          62.6400   82.1200   13.0281 C.3     1  UNL1        0.0209
     13 C          62.8462   81.9229   12.2807 C.3     1  UNL1        0.0723
     14 O          63.0789   83.9559   12.3869 O.2     1  UNL1       -0.4536
     15 C          59.2988   88.3584    7.4777 C.ar    1  UNL1        0.0000
     16 C          59.4117   86.8636    7.5307 C.ar    1  UNL1        0.0000
     17 C          60.2348   86.2111    8.6015 C.ar    1  UNL1        0.0001
     18 C          60.9450   87.0534    9.6193 C.ar    1  UNL1        0.0043
     19 C          61.7682   86.4008   10.6902 C.ar    1  UNL1        0.0345
     20 C          62.4785   87.2431   11.7081 C.ar    1  UNL1        0.1354
     21 N          62.3656   88.7379   11.6552 N.ar    1  UNL1       -0.2290
     22 C          61.5424   89.3905   10.5843 C.ar    1  UNL1        0.1003
     23 C          60.8322   88.5481    9.5665 C.ar    1  UNL1        0.0193
     24 C          60.0090   89.2007    8.4956 C.ar    1  UNL1        0.0015
@<TRIPOS>BOND
     1    15    16   ar
     2    16    17   ar
     3    17    18   ar
     4    18    19   ar
     5    19    20   ar
     6    20     1    1
     7     1     3    1
     8     3     4    2
     9     4     5    1
    10     6     5    1
    11     6     7    1
    12     7     8    1
    13     8     9    1
    14     9    10    1
    15    10    11    1
    16    11    12    1
    17    12    13    1
    18     6    14    1
    19    20    21   ar
    20    21    22   ar
    21    22    23   ar
    22    23    24   ar
    23    24    15   ar
    24    23    18   ar
    25    14     3    1
    26    11     6    1
    27    13     8    1
    28     1     2    1
@<TRIPOS>MOLECULE
*****
 24 28 0 0 0
SMALL
GASTEIGER

@<TRIPOS>ATOM
      1 N          64.5538   86.7926   15.0237 N.pl3   1  UNL1       -0.2536
      2 H          65.2417   86.8986   15.7200 H       1  UNL1        0.1579
      3 C          64.1920   87.9525   14.1441 C.2     1  UNL1        0.2847
      4 N          64.5671   89.3861   14.3767 N.2     1  UNL1       -0.2204
      5 C          63.9984   90.2020   13.2537 C.3     1  UNL1        0.1712
      6 C          63.2719   89.2727   12.3272 C.3     1  UNL1        0.1729
      7 C          62.5872   88.2272   11.4977 C.3     1  UNL1        0.1147
      8 N          61.8674   88.6193   10.2414 N.3     1  UNL1       -0.2697
      9 C          61.8323   90.0568    9.8146 C.3     1  UNL1        0.0723
     10 C          62.5170   91.1023   10.6442 C.3     1  UNL1        0.0209
     11 C          63.2368   90.7102   11.9004 C.3     1  UNL1        0.0429
     12 C          62.9360   89.4556   11.7409 C.3     1  UNL1        0.0209
     13 C          62.5708   88.8981   11.2985 C.3     1  UNL1        0.0723
     14 O          63.3916   87.8824   12.8775 O.2     1  UNL1       -0.4536
     15 C          62.1767   80.6228   13.1442 C.ar    1  UNL1        0.0000
     16 C          63.2309   81.0601   12.1709 C.ar    1  UNL1        0.0000
     17 C          63.9172   82.3815   12.3522 C.ar    1  UNL1        0.0001
     18 C          63.5492   83.2656   13.5067 C.ar    1  UNL1        0.0043
     19 C          64.2356   84.5871   13.6879 C.ar    1  UNL1        0.0345
     20 C          63.8676   85.4712   14.8425 C.ar    1  UNL1        0.1354
     21 N          62.8133   85.0338   15.8158 N.ar    1  UNL1       -0.2290
     22 C          62.1270   83.7124   15.6345 C.ar    1  UNL1        0.1003
     23 C          62.4950   82.8284   14.4800 C.ar    1  UNL1        0.0193
     24 C          61.8088   81.5069   14.2987 C.ar    1  UNL1        0.0015
@<TRIPOS>BOND
     1    15    16   ar
     2    16    17   ar
     3    17    18   ar
     4    18    19   ar
     5    19    20   ar
     6    20     1    1
     7     1     3    1
     8     3     4    2
     9     4     5    1
    10     6     5    1
    11     6     7    1
    12     7     8    1
    13     8     9    1
    14     9    10    1
    15    10    11    1
    16    11    12    1
    17    12    13    1
    18     6    14    1
    19    20    21   ar
    20    21    22   ar
    21    22    23   ar
    22    23    24   ar
    23    24    15   ar
    24    23    18   ar
    25    14     3    1
    26    11     6    1
    27    13     8    1
    28     1     2    1
@<TRIPOS>MOLECULE
*****
 24 28 0 0 0
SMALL
GASTEIGER

@<TRIPOS>ATOM
      1 N          63.3284   86.7205   12.8580 N.pl3   1  UNL1       -0.2536
      2 H          64.0435   87.1992   13.3362 H       1  UNL1        0.1579
      3 C          62.5249   87.4279   11.8073 C.2     1  UNL1        0.2847
      4 N          62.3539   88.9125   11.6789 N.2     1  UNL1       -0.2204
      5 C          61.4747   89.1770   10.4927 C.3     1  UNL1        0.1712
      6 C          61.1024   87.8558    9.8879 C.3     1  UNL1        0.1729
      7 C          60.8162   86.4679    9.3962 C.3     1  UNL1        0.1147
      8 N          59.9474   86.2635    8.1907 N.3     1  UNL1       -0.2697
      9 C          59.3648   87.4471    7.4767 C.3     1  UNL1        0.0723
     10 C          59.6511   88.8350    7.9684 C.3     1  UNL1        0.0209
     11 C          60.5199   89.0393    9.1739 C.3     1  UNL1        0.0429
     12 C          60.6970   87.7604    9.3253 C.3     1  UNL1        0.0209
     13 C          60.5443   87.0202    9.0631 C.3     1  UNL1        0.0723
     14 O          61.7515   86.7748   10.7004 O.2     1  UNL1       -0.4536
     15 C          62.3556   79.9198   13.0930 C.ar    1  UNL1        0.0000
     16 C          62.8139   80.3030   11.7171 C.ar    1  UNL1        0.0000
     17 C          63.1001   81.7398   11.3949 C.ar    1  UNL1        0.0001
     18 C          62.9280   82.7933   12.4487 C.ar    1  UNL1        0.0043
     19 C          63.2142   84.2302   12.1265 C.ar    1  UNL1        0.0345
     20 C          63.0422   85.2837   13.1802 C.ar    1  UNL1        0.1354
     21 N          62.5839   84.9005   14.5561 N.ar    1  UNL1       -0.2290
     22 C          62.2977   83.4638   14.8783 C.ar    1  UNL1        0.1003
     23 C          62.4698   82.4102   13.8246 C.ar    1  UNL1        0.0193
     24 C          62.1836   80.9734   14.1467 C.ar    1  UNL1        0.0015
@<TRIPOS>BOND
     1    15    16   ar
     2    16    17   ar
     3    17    18   ar
     4    18    19   ar
     5    19    20   ar
     6    20     1    1
     7     1     3    1
     8     3     4    2
     9     4     5    1
    10     6     5    1
    11     6     7    1
    12     7     8    1
    13     8     9    1
    14     9    10    1
    15    10    11    1
    16    11    12    1
    17    12    13    1
    18     6    14    1
    19    20    21   ar
    20    21    22   ar
    21    22    23   ar
    22    23    24   ar
    23    24    15   ar
    24    23    18   ar
    25    14     3    1
    26    11     6    1
    27    13     8    1
    28     1     2    1
@<TRIPOS>MOLECULE
*****
 24 28 0 0 0
SMALL
GASTEIGER

@<TRIPOS>ATOM
      1 N          62.1381   91.0444   11.9723 N.pl3   1  UNL1       -0.2536
      2 H          61.5696   91.8386   11.8485 H       1  UNL1        0.1579
      3 C          63.3038   91.0960   12.9149 C.2     1  UNL1        0.2847
      4 N          63.3302   90.5580   14.3148 N.2     1  UNL1       -0.2204
      5 C          64.6906   90.8242   14.8881 C.3     1  UNL1        0.1712
      6 C          65.5049   91.5268   13.8425 C.3     1  UNL1        0.1729
      7 C          66.1928   92.2201   12.7041 C.3     1  UNL1        0.1147
      8 N          67.6146   92.6749   12.8520 N.3     1  UNL1       -0.2697
      9 C          68.3483   92.4363   14.1383 C.3     1  UNL1        0.0723
     10 C          67.6604   91.7430   15.2767 C.3     1  UNL1        0.0209
     11 C          66.2386   91.2882   15.1288 C.3     1  UNL1        0.0429
     12 C          66.1684   91.7390   13.9115 C.3     1  UNL1        0.0209
     13 C          66.5353   92.1088   13.3044 C.3     1  UNL1        0.0723
     14 O          64.6478   91.6948   12.6230 O.2     1  UNL1       -0.4536
     15 C          60.0127   86.0302    7.7781 C.ar    1  UNL1        0.0000
     16 C          59.3854   87.3248    7.3531 C.ar    1  UNL1        0.0000
     17 C          59.6850   88.5865    8.1069 C.ar    1  UNL1        0.0001
     18 C          60.6119   88.5536    9.2858 C.ar    1  UNL1        0.0043
     19 C          60.9115   89.8155   10.0397 C.ar    1  UNL1        0.0345
     20 C          61.8385   89.7826   11.2185 C.ar    1  UNL1        0.1354
     21 N          62.4658   88.4881   11.6435 N.ar    1  UNL1       -0.2290
     22 C          62.1662   87.2264   10.8897 C.ar    1  UNL1        0.1003
     23 C          61.2393   87.2592    9.7109 C.ar    1  UNL1        0.0193
     24 C          60.9396   85.9974    8.9570 C.ar    1  UNL1        0.0015
@<TRIPOS>BOND
     1    15    16   ar
     2    16    17   ar
     3    17    18   ar
     4    18    19   ar
     5    19    20   ar
     6    20     1    1
     7     1     3    1
     8     3     4    2
     9     4     5    1
    10     6     5    1
    11     6     7    1
    12     7     8    1
    13     8     9    1
    14     9    10    1
    15    10    11    1
    16    11    12    1
    17    12    13    1
    18     6    14    1
    19    20    21   ar
    20    21    22   ar
    21    22    23   ar
    22    23    24   ar
    23    24    15   ar
    24    23    18   ar
    25    14     3    1
    26    11     6    1
    27    13     8    1
    28     1     2    1
@<TRIPOS>MOLECULE
*****
 24 28 0 0 0
SMALL
GASTEIGER

@<TRIPOS>ATOM
      1 N          61.6566   88.3458   11.4701 N.pl3   1  UNL1       -0.2536
      2 H          60.6895   88.5224   11.5233 H       1  UNL1        0.1579
      3 C          62.1512   86.9565   11.1956 C.2     1  UNL1        0.2847
      4 N          62.2607   86.3100    9.8465 N.2     1  UNL1       -0.2204
      5 C          62.8004   84.9238   10.0393 C.3     1  UNL1        0.1712
      6 C          63.0245   84.7135   11.5075 C.3     1  UNL1        0.1729
      7 C          63.1956   84.6497   12.9963 C.3     1  UNL1        0.1147
      8 N          63.7274   83.4022   13.6373 N.3     1  UNL1       -0.2697
      9 C          64.0882   82.2185   12.7894 C.3     1  UNL1        0.0723
     10 C          63.9171   82.2824   11.3006 C.3     1  UNL1        0.0209
     11 C          63.3852   83.5299   10.6597 C.3     1  UNL1        0.0429
     12 C          63.2727   84.1314   11.8066 C.3     1  UNL1        0.0209
     13 C          63.3639   84.0973   12.6006 C.3     1  UNL1        0.0723
     14 O          62.6232   85.9698   12.2221 O.2     1  UNL1       -0.4536
     15 C          66.3573   92.9242   13.5173 C.ar    1  UNL1        0.0000
     16 C          66.1641   91.9022   14.5981 C.ar    1  UNL1        0.0000
     17 C          65.1853   90.7821   14.4048 C.ar    1  UNL1        0.0001
     18 C          64.3998   90.6840   13.1307 C.ar    1  UNL1        0.0043
     19 C          63.4209   89.5639   12.9374 C.ar    1  UNL1        0.0345
     20 C          62.6354   89.4658   11.6633 C.ar    1  UNL1        0.1354
     21 N          62.8286   90.4879   10.5825 N.ar    1  UNL1       -0.2290
     22 C          63.8074   91.6079   10.7758 C.ar    1  UNL1        0.1003
     23 C          64.5929   91.7060   12.0499 C.ar    1  UNL1        0.0193
     24 C          65.5718   92.8261   12.2432 C.ar    1  UNL1        0.0015
@<TRIPOS>BOND
     1    15    16   ar
     2    16    17   ar
     3    17    18   ar
     4    18    19   ar
     5    19    20   ar
     6    20     1    1
     7     1     3    1
     8     3     4    2
     9     4     5    1
    10     6     5    1
    11     6     7    1
    12     7     8    1
    13     8     9    1
    14     9    10    1
    15    10    11    1
    16    11    12    1
    17    12    13    1
    18     6    14    1
    19    20    21   ar
    20    21    22   ar
    21    22    23   ar
    22    23    24   ar
    23    24    15   ar
    24    23    18   ar
    25    14     3    1
    26    11     6    1
    27    13     8    1
    28     1     2    1
@<TRIPOS>MOLECULE
*****
 24 28 0 0 0
SMALL
GASTEIGER

@<TRIPOS>ATOM
      1 N          61.3529   89.6822   11.7084 N.pl3   1  UNL1       -0.2536
      2 H          60.6769   89.7980   12.4147 H       1  UNL1        0.1579
      3 C          62.6126   90.4961   11.7350 C.2     1  UNL1        0.2847
      4 N          63.1905   91.2643   10.5836 N.2     1  UNL1       -0.2204
      5 C          64.4505   91.9278   11.0548 C.3     1  UNL1        0.1712
      6 C          64.6514   91.5697   12.4975 C.3     1  UNL1        0.1729
      7 C          64.7195   91.1284   13.9295 C.3     1  UNL1        0.1147
      8 N          65.8567   91.5764   14.7990 N.3     1  UNL1       -0.2697
      9 C          66.9257   92.4657   14.2366 C.3     1  UNL1        0.0723
     10 C          66.8576   92.9069   12.8047 C.3     1  UNL1        0.0209
     11 C          65.7205   92.4589   11.9351 C.3     1  UNL1        0.0429
     12 C          65.1821   91.7787   12.9033 C.3     1  UNL1        0.0209
     13 C          65.2184   91.5434   13.6670 C.3     1  UNL1        0.0723
     14 O          63.5155   90.6849   12.9179 O.2     1  UNL1       -0.4536
     15 C          61.5299   84.7783    6.8947 C.ar    1  UNL1        0.0000
     16 C          62.8554   84.8269    7.5952 C.ar    1  UNL1        0.0000
     17 C          63.0851   85.8173    8.6980 C.ar    1  UNL1        0.0001
     18 C          61.9893   86.7592    9.1003 C.ar    1  UNL1        0.0043
     19 C          62.2190   87.7498   10.2033 C.ar    1  UNL1        0.0345
     20 C          61.1232   88.6917   10.6056 C.ar    1  UNL1        0.1354
     21 N          59.7977   88.6432    9.9051 N.ar    1  UNL1       -0.2290
     22 C          59.5680   87.6527    8.8023 C.ar    1  UNL1        0.1003
     23 C          60.6638   86.7108    8.4000 C.ar    1  UNL1        0.0193
     24 C          60.4341   85.7203    7.2971 C.ar    1  UNL1        0.0015
@<TRIPOS>BOND
     1    15    16   ar
     2    16    17   ar
     3    17    18   ar
     4    18    19   ar
     5    19    20   ar
     6    20     1    1
     7     1     3    1
     8     3     4    2
     9     4     5    1
    10     6     5    1
    11     6     7    1
    12     7     8    1
    13     8     9    1
    14     9    10    1
    15    10    11    1
    16    11    12    1
    17    12    13    1
    18     6    14    1
    19    20    21   ar
    20    21    22   ar
    21    22    23   ar
    22    23    24   ar
    23    24    15   ar
    24    23    18   ar
    25    14     3    1
    26    11     6    1
    27    13     8    1
    28     1     2    1
@<TRIPOS>MOLECULE
*****
 24 28 0 0 0
SMALL
GASTEIGER

@<TRIPOS>ATOM
      1 N          64.4944   86.7026   15.2538 N.pl3   1  UNL1       -0.2536
      2 H          65.1478   86.7884   15.9851 H       1  UNL1        0.1579
      3 C          63.7631   85.4090   15.0492 C.2     1  UNL1        0.2847
      4 N          62.6148   84.9056   15.8724 N.2     1  UNL1       -0.2204
      5 C          62.1938   83.5771   15.3174 C.3     1  UNL1        0.1712
      6 C          63.0820   83.2595   14.1511 C.3     1  UNL1        0.1729
      7 C          64.0417   83.0789   13.0126 C.3     1  UNL1        0.1147
      8 N          63.9722   81.8457   12.1615 N.3     1  UNL1       -0.2697
      9 C          62.9430   80.7931   12.4489 C.3     1  UNL1        0.0723
     10 C          61.9833   80.9737   13.5874 C.3     1  UNL1        0.0209
     11 C          62.0528   82.2069   14.4385 C.3     1  UNL1        0.0429
     12 C          63.0496   82.6840   13.7539 C.3     1  UNL1        0.0209
     13 C          63.5614   82.5877   13.1467 C.3     1  UNL1        0.0723
     14 O          64.0519   84.3917   13.9853 O.2     1  UNL1       -0.4536
     15 C          62.6878   91.1479   10.3317 C.ar    1  UNL1        0.0000
     16 C          62.2032   89.7783    9.9584 C.ar    1  UNL1        0.0000
     17 C          62.4676   88.6153   10.8681 C.ar    1  UNL1        0.0001
     18 C          63.2166   88.8220   12.1512 C.ar    1  UNL1        0.0043
     19 C          63.4810   87.6589   13.0610 C.ar    1  UNL1        0.0345
     20 C          64.2300   87.8656   14.3440 C.ar    1  UNL1        0.1354
     21 N          64.7146   89.2352   14.7174 N.ar    1  UNL1       -0.2290
     22 C          64.4502   90.3981   13.8077 C.ar    1  UNL1        0.1003
     23 C          63.7012   90.1915   12.5246 C.ar    1  UNL1        0.0193
     24 C          63.4368   91.3545   11.6148 C.ar    1  UNL1        0.0015
@<TRIPOS>BOND
     1    15    16   ar
     2    16    17   ar
     3    17    18   ar
     4    18    19   ar
     5    19    20   ar
     6    20     1    1
     7     1     3    1
     8     3     4    2
     9     4     5    1
    10     6     5    1
    11     6     7    1
    12     7     8    1
    13     8     9    1
    14     9    10    1
    15    10    11    1
    16    11    12    1
    17    12    13    1
    18     6    14    1
    19    20    21   ar
    20    21    22   ar
    21    22    23   ar
    22    23    24   ar
    23    24    15   ar
    24    23    18   ar
    25    14     3    1
    26    11     6    1
    27    13     8    1
    28     1     2    1
@<TRIPOS>MOLECULE
*****
 24 28 0 0 0
SMALL
GASTEIGER

@<TRIPOS>ATOM
      1 N          63.4344   89.5336   13.2040 N.pl3   1  UNL1       -0.2536
      2 H          62.8037   89.9063   12.5463 H       1  UNL1        0.1579
      3 C          64.2601   90.4520   14.0553 C.2     1  UNL1        0.2847
      4 N          63.8141   91.1173   15.3236 N.2     1  UNL1       -0.2204
      5 C          64.9551   91.9429   15.8400 C.3     1  UNL1        0.1712
      6 C          66.1062   91.7878   14.8909 C.3     1  UNL1        0.1729
      7 C          67.1648   91.5375   13.8580 C.3     1  UNL1        0.1147
      8 N          68.5094   92.1893   13.9889 N.3     1  UNL1       -0.2697
      9 C          68.7955   93.0914   15.1527 C.3     1  UNL1        0.0723
     10 C          67.7369   93.3417   16.1855 C.3     1  UNL1        0.0209
     11 C          66.3923   92.6898   16.0546 C.3     1  UNL1        0.0429
     12 C          66.7337   92.0919   14.9520 C.3     1  UNL1        0.0209
     13 C          67.2983   91.9585   14.4011 C.3     1  UNL1        0.0723
     14 O          65.6767   90.8664   13.7879 O.2     1  UNL1       -0.4536
     15 C          63.4193   82.6744   12.7559 C.ar    1  UNL1        0.0000
     16 C          62.7278   83.2465   11.5540 C.ar    1  UNL1        0.0000
     17 C          62.5925   84.7327   11.4033 C.ar    1  UNL1        0.0001
     18 C          63.1487   85.6469   12.4544 C.ar    1  UNL1        0.0043
     19 C          63.0134   87.1332   12.3036 C.ar    1  UNL1        0.0345
     20 C          63.5697   88.0474   13.3547 C.ar    1  UNL1        0.1354
     21 N          64.2613   87.4753   14.5566 N.ar    1  UNL1       -0.2290
     22 C          64.3966   85.9890   14.7073 C.ar    1  UNL1        0.1003
     23 C          63.8403   85.0749   13.6562 C.ar    1  UNL1        0.0193
     24 C          63.9756   83.5885   13.8069 C.ar    1  UNL1        0.0015
@<TRIPOS>BOND
     1    15    16   ar
     2    16    17   ar
     3    17    18   ar
     4    18    19   ar
     5    19    20   ar
     6    20     1    1
     7     1     3    1
     8     3     4    2
     9     4     5    1
    10     6     5    1
    11     6     7    1
    12     7     8    1
    13     8     9    1
    14     9    10    1
    15    10    11    1
    16    11    12    1
    17    12    13    1
    18     6    14    1
    19    20    21   ar
    20    21    22   ar
    21    22    23   ar
    22    23    24   ar
    23    24    15   ar
    24    23    18   ar
    25    14     3    1
    26    11     6    1
    27    13     8    1
    28     1     2    1
@<TRIPOS>MOLECULE
*****
 24 28 0 0 0
SMALL
GASTEIGER

@<TRIPOS>ATOM
      1 N          62.2499   90.7917   12.5764 N.pl3   1  UNL1       -0.2536
      2 H          61.5012   91.2520   13.0201 H       1  UNL1        0.1579
      3 C          63.6553   91.2726   12.7847 C.2     1  UNL1        0.2847
      4 N          64.6599   91.5537   11.7069 N.2     1  UNL1       -0.2204
      5 C          65.9284   92.0118   12.3635 C.3     1  UNL1        0.1712
      6 C          65.7078   92.0138   13.8472 C.3     1  UNL1        0.1729
      7 C          65.3415   91.9655   15.3010 C.3     1  UNL1        0.1147
      8 N          66.3489   92.3558   16.3416 N.3     1  UNL1       -0.2697
      9 C          67.7225   92.7943   15.9285 C.3     1  UNL1        0.0723
     10 C          68.0888   92.8426   14.4747 C.3     1  UNL1        0.0209
     11 C          67.0815   92.4523   13.4341 C.3     1  UNL1        0.0429
     12 C          66.1779   92.1959   14.3328 C.3     1  UNL1        0.0209
     13 C          65.9826   92.1701   15.1082 C.3     1  UNL1        0.0723
     14 O          64.3030   91.5570   14.1075 O.2     1  UNL1       -0.4536
     15 C          60.2646   86.1952    7.8668 C.ar    1  UNL1        0.0000
     16 C          59.6030   87.5103    7.5788 C.ar    1  UNL1        0.0000
     17 C          59.8677   88.6926    8.4632 C.ar    1  UNL1        0.0001
     18 C          60.7941   88.5598    9.6355 C.ar    1  UNL1        0.0043
     19 C          61.0588   89.7422   10.5198 C.ar    1  UNL1        0.0345
     20 C          61.9851   89.6094   11.6921 C.ar    1  UNL1        0.1354
     21 N          62.6467   88.2943   11.9801 N.ar    1  UNL1       -0.2290
     22 C          62.3820   87.1120   11.0958 C.ar    1  UNL1        0.1003
     23 C          61.4556   87.2448    9.9235 C.ar    1  UNL1        0.0193
     24 C          61.1908   86.0625    9.0391 C.ar    1  UNL1        0.0015
@<TRIPOS>BOND
     1    15    16   ar
     2    16    17   ar
     3    17    18   ar
     4    18    19   ar
     5    19    20   ar
     6    20     1    1
     7     1     3    1
     8     3     4    2
     9     4     5    1
    10     6     5    1
    11     6     7    1
    12     7     8    1
    13     8     9    1
    14     9    10    1
    15    10    11    1
    16    11    12    1
    17    12    13    1
    18     6    14    1
    19    20    21   ar
    20    21    22   ar
    21    22    23   ar
    22    23    24   ar
    23    24    15   ar
    24    23    18   ar
    25    14     3    1
    26    11     6    1
    27    13     8    1
    28     1     2    1
