@<TRIPOS>MOLECULE
*****
 28 30 0 0 0
SMALL
GASTEIGER

@<TRIPOS>ATOM
      1 N          65.4320   92.5934   10.9520 N.am    1  UNL1       -0.2683
      2 C          65.3506   92.4691   12.4447 C.2     1  UNL1        0.3102
      3 O          65.9267   93.5431   13.3192 O.2     1  UNL1       -0.2521
      4 N          64.6932   91.2709   13.0627 N.am    1  UNL1       -0.2387
      5 C          64.6118   91.1466   14.5554 C.2     1  UNL1        0.2407
      6 O          65.1878   92.2205   15.4299 O.2     1  UNL1       -0.2737
      7 H          65.0540   91.8886   10.3780 H       1  UNL1        0.1564
      8 H          64.3151   90.5661   12.4887 H       1  UNL1        0.1591
      9 C          68.0319   92.2887    9.4864 C.3     1  UNL1        0.0323
     10 C          67.3895   93.6393    9.6012 C.ar    1  UNL1       -0.0083
     11 C          68.0469   94.8375    8.9831 C.ar    1  UNL1       -0.0030
     12 C          67.4045   96.1881    9.0979 C.ar    1  UNL1       -0.0002
     13 C          66.1046   96.3404    9.8307 C.ar    1  UNL1        0.0013
     14 C          65.4471   95.1423   10.4487 C.ar    1  UNL1        0.0144
     15 C          66.0895   93.7917   10.3340 C.ar    1  UNL1        0.0476
     16 C          63.9544   89.9485   15.1734 C.3     1  UNL1        0.1488
     17 S          64.4379   88.5695   14.8347 S.3     1  UNL1       -0.0840
     18 C          63.7801   87.7939   13.7320 C.ar    1  UNL1        0.1206
     19 N          63.1720   88.5162   12.5664 N.ar    1  UNL1       -0.2364
     20 C          62.5143   87.7406   11.4637 C.ar    1  UNL1        0.0994
     21 C          61.9062   88.4629   10.2982 C.ar    1  UNL1        0.0207
     22 C          61.2485   87.6873    9.1956 C.ar    1  UNL1        0.0016
     23 C          61.1988   86.1894    9.2585 C.ar    1  UNL1        0.0016
     24 C          61.8069   85.4671   10.4241 C.ar    1  UNL1        0.0206
     25 C          62.4646   86.2427   11.5267 C.ar    1  UNL1        0.0986
     26 N          63.0727   85.5205   12.6923 N.ar    1  UNL1       -0.2461
     27 C          63.7304   86.2961   13.7949 C.ar    1  UNL1        0.0828
     28 C          64.3385   85.5738   14.9606 C.3     1  UNL1        0.0543
@<TRIPOS>BOND
     1     9    10    1
     2    10    11   ar
     3    11    12   ar
     4    12    13   ar
     5    13    14   ar
     6    14    15   ar
     7    15     1    1
     8     1     2   am
     9     2     3    2
    10     2     4   am
    11     4     5   am
    12     5     6    2
    13     5    16    1
    14    16    17    1
    15    17    18    1
    16    18    19   ar
    17    19    20   ar
    18    20    21   ar
    19    21    22   ar
    20    22    23   ar
    21    23    24   ar
    22    24    25   ar
    23    25    26   ar
    24    26    27   ar
    25    27    28    1
    26    15    10   ar
    27    27    18   ar
    28    25    20   ar
    29     1     7    1
    30     4     8    1
@<TRIPOS>MOLECULE
*****
 28 30 0 0 0
SMALL
GASTEIGER

@<TRIPOS>ATOM
      1 N          64.6481   89.8338   13.9728 N.am    1  UNL1       -0.2683
      2 C          63.6467   90.1328   12.8968 C.2     1  UNL1        0.3102
      3 O          63.5078   91.5300   12.3688 O.2     1  UNL1       -0.2521
      4 N          62.7842   89.0348   12.3488 N.am    1  UNL1       -0.2387
      5 C          61.7828   89.3338   11.2728 C.2     1  UNL1        0.2407
      6 O          61.6439   90.7309   10.7447 O.2     1  UNL1       -0.2737
      7 H          64.7392   88.9168   14.3194 H       1  UNL1        0.1564
      8 H          62.8753   88.1178   12.6954 H       1  UNL1        0.1591
      9 C          63.8413   91.2633   16.4839 C.3     1  UNL1        0.0323
     10 C          65.1072   91.6467   15.7764 C.ar    1  UNL1       -0.0083
     11 C          65.9696   92.7448   16.3244 C.ar    1  UNL1       -0.0030
     12 C          67.2355   93.1281   15.6168 C.ar    1  UNL1       -0.0002
     13 C          67.6389   92.4134   14.3613 C.ar    1  UNL1        0.0013
     14 C          66.7764   91.3153   13.8133 C.ar    1  UNL1        0.0144
     15 C          65.5106   90.9319   14.5208 C.ar    1  UNL1        0.0476
     16 C          60.9203   88.2358   10.7248 C.3     1  UNL1        0.1488
     17 S          61.5188   87.1828    9.8398 S.3     1  UNL1       -0.0840
     18 C          62.1576   85.9683   10.4456 C.ar    1  UNL1        0.1206
     19 N          62.0577   85.7261   11.9225 N.ar    1  UNL1       -0.2364
     20 C          62.6966   84.5116   12.5283 C.ar    1  UNL1        0.0994
     21 C          62.5967   84.2694   14.0052 C.ar    1  UNL1        0.0207
     22 C          63.2355   83.0549   14.6109 C.ar    1  UNL1        0.0016
     23 C          63.9742   82.0826   13.7397 C.ar    1  UNL1        0.0016
     24 C          64.0740   82.3248   12.2627 C.ar    1  UNL1        0.0206
     25 C          63.4352   83.5393   11.6570 C.ar    1  UNL1        0.0986
     26 N          63.5350   83.7815   10.1800 N.ar    1  UNL1       -0.2461
     27 C          62.8962   84.9960    9.5743 C.ar    1  UNL1        0.0828
     28 C          62.9960   85.2382    8.0973 C.3     1  UNL1        0.0543
@<TRIPOS>BOND
     1     9    10    1
     2    10    11   ar
     3    11    12   ar
     4    12    13   ar
     5    13    14   ar
     6    14    15   ar
     7    15     1    1
     8     1     2   am
     9     2     3    2
    10     2     4   am
    11     4     5   am
    12     5     6    2
    13     5    16    1
    14    16    17    1
    15    17    18    1
    16    18    19   ar
    17    19    20   ar
    18    20    21   ar
    19    21    22   ar
    20    22    23   ar
    21    23    24   ar
    22    24    25   ar
    23    25    26   ar
    24    26    27   ar
    25    27    28    1
    26    15    10   ar
    27    27    18   ar
    28    25    20   ar
    29     1     7    1
    30     4     8    1
@<TRIPOS>MOLECULE
*****
 28 30 0 0 0
SMALL
GASTEIGER

@<TRIPOS>ATOM
      1 N          66.2555   93.3684   12.0570 N.am    1  UNL1       -0.2683
      2 C          65.1758   92.3275   12.0286 C.2     1  UNL1        0.3102
      3 O          64.4144   92.0710   10.7619 O.2     1  UNL1       -0.2521
      4 N          64.8574   91.5431   13.2669 N.am    1  UNL1       -0.2387
      5 C          63.7777   90.5023   13.2385 C.2     1  UNL1        0.2407
      6 O          63.0163   90.2458   11.9719 O.2     1  UNL1       -0.2737
      7 H          66.7552   93.5367   12.8884 H       1  UNL1        0.1564
      8 H          65.3572   91.7115   14.0983 H       1  UNL1        0.1591
      9 C          68.0455   92.1932    9.9559 C.3     1  UNL1        0.0323
     10 C          67.4688   93.5652    9.7681 C.ar    1  UNL1       -0.0083
     11 C          67.7872   94.3495    8.5298 C.ar    1  UNL1       -0.0030
     12 C          67.2105   95.7214    8.3420 C.ar    1  UNL1       -0.0002
     13 C          66.3155   96.3090    9.3926 C.ar    1  UNL1        0.0013
     14 C          65.9971   95.5247   10.6309 C.ar    1  UNL1        0.0144
     15 C          66.5738   94.1528   10.8186 C.ar    1  UNL1        0.0476
     16 C          63.4594   89.7179   14.4768 C.3     1  UNL1        0.1488
     17 S          64.3463   88.5824   14.8940 S.3     1  UNL1       -0.0840
     18 C          63.8201   87.1776   14.8856 C.ar    1  UNL1        0.1206
     19 N          63.9276   86.3439   13.6433 N.ar    1  UNL1       -0.2364
     20 C          63.4014   84.9392   13.6350 C.ar    1  UNL1        0.0994
     21 C          63.5089   84.1055   12.3927 C.ar    1  UNL1        0.0207
     22 C          62.9828   82.7008   12.3843 C.ar    1  UNL1        0.0016
     23 C          62.3492   82.1299   13.6183 C.ar    1  UNL1        0.0016
     24 C          62.2418   82.9636   14.8606 C.ar    1  UNL1        0.0206
     25 C          62.7679   84.3682   14.8689 C.ar    1  UNL1        0.0986
     26 N          62.6605   85.2020   16.1113 N.ar    1  UNL1       -0.2461
     27 C          63.1866   86.6067   16.1196 C.ar    1  UNL1        0.0828
     28 C          63.0792   87.4405   17.3620 C.3     1  UNL1        0.0543
@<TRIPOS>BOND
     1     9    10    1
     2    10    11   ar
     3    11    12   ar
     4    12    13   ar
     5    13    14   ar
     6    14    15   ar
     7    15     1    1
     8     1     2   am
     9     2     3    2
    10     2     4   am
    11     4     5   am
    12     5     6    2
    13     5    16    1
    14    16    17    1
    15    17    18    1
    16    18    19   ar
    17    19    20   ar
    18    20    21   ar
    19    21    22   ar
    20    22    23   ar
    21    23    24   ar
    22    24    25   ar
    23    25    26   ar
    24    26    27   ar
    25    27    28    1
    26    15    10   ar
    27    27    18   ar
    28    25    20   ar
    29     1     7    1
    30     4     8    1
@<TRIPOS>MOLECULE
*****
 28 30 0 0 0
SMALL
GASTEIGER

@<TRIPOS>ATOM
      1 N          65.2852   91.7960   12.7665 N.am    1  UNL1       -0.2683
      2 C          63.9953   91.1076   13.1018 C.2     1  UNL1        0.3102
      3 O          63.7146   90.6872   14.5141 O.2     1  UNL1       -0.2521
      4 N          62.9862   90.8395   12.0249 N.am    1  UNL1       -0.2387
      5 C          61.6964   90.1511   12.3601 C.2     1  UNL1        0.2407
      6 O          61.4157   89.7307   13.7724 O.2     1  UNL1       -0.2737
      7 H          65.4694   92.0719   11.8396 H       1  UNL1        0.1564
      8 H          63.1705   91.1154   11.0980 H       1  UNL1        0.1591
      9 C          68.2165   91.6558   12.1440 C.3     1  UNL1        0.0323
     10 C          67.7599   91.9940   13.5323 C.ar    1  UNL1       -0.0083
     11 C          68.7690   92.2620   14.6093 C.ar    1  UNL1       -0.0030
     12 C          68.3124   92.6001   15.9975 C.ar    1  UNL1       -0.0002
     13 C          66.8467   92.6702   16.3087 C.ar    1  UNL1        0.0013
     14 C          65.8377   92.4022   15.2318 C.ar    1  UNL1        0.0144
     15 C          66.2943   92.0641   13.8436 C.ar    1  UNL1        0.0476
     16 C          60.6873   89.8830   11.2832 C.3     1  UNL1        0.1488
     17 S          60.0904   88.5145   11.1385 S.3     1  UNL1       -0.0840
     18 C          60.9577   87.3559   10.7442 C.ar    1  UNL1        0.1206
     19 N          61.6802   86.5677   11.7961 N.ar    1  UNL1       -0.2364
     20 C          62.5475   85.4090   11.4018 C.ar    1  UNL1        0.0994
     21 C          63.2700   84.6208   12.4537 C.ar    1  UNL1        0.0207
     22 C          64.1372   83.4622   12.0594 C.ar    1  UNL1        0.0016
     23 C          64.2819   83.0918   10.6130 C.ar    1  UNL1        0.0016
     24 C          63.5593   83.8800    9.5611 C.ar    1  UNL1        0.0206
     25 C          62.6921   85.0386    9.9554 C.ar    1  UNL1        0.0986
     26 N          61.9696   85.8269    8.9035 N.ar    1  UNL1       -0.2461
     27 C          61.1024   86.9855    9.2978 C.ar    1  UNL1        0.0828
     28 C          60.3798   87.7737    8.2458 C.3     1  UNL1        0.0543
@<TRIPOS>BOND
     1     9    10    1
     2    10    11   ar
     3    11    12   ar
     4    12    13   ar
     5    13    14   ar
     6    14    15   ar
     7    15     1    1
     8     1     2   am
     9     2     3    2
    10     2     4   am
    11     4     5   am
    12     5     6    2
    13     5    16    1
    14    16    17    1
    15    17    18    1
    16    18    19   ar
    17    19    20   ar
    18    20    21   ar
    19    21    22   ar
    20    22    23   ar
    21    23    24   ar
    22    24    25   ar
    23    25    26   ar
    24    26    27   ar
    25    27    28    1
    26    15    10   ar
    27    27    18   ar
    28    25    20   ar
    29     1     7    1
    30     4     8    1
@<TRIPOS>MOLECULE
*****
 28 30 0 0 0
SMALL
GASTEIGER

@<TRIPOS>ATOM
      1 N          63.6611   84.6594   12.8264 N.am    1  UNL1       -0.2683
      2 C          63.5985   85.6521   13.9492 C.2     1  UNL1        0.3102
      3 O          62.9810   85.2639   15.2599 O.2     1  UNL1       -0.2521
      4 N          64.1534   87.0329   13.7612 N.am    1  UNL1       -0.2387
      5 C          64.0908   88.0256   14.8840 C.2     1  UNL1        0.2407
      6 O          63.4733   87.6375   16.1947 O.2     1  UNL1       -0.2737
      7 H          64.0664   84.9141   11.9661 H       1  UNL1        0.1564
      8 H          64.5586   87.2877   12.9009 H       1  UNL1        0.1591
      9 C          64.1565   82.5486   10.7529 C.3     1  UNL1        0.0323
     10 C          63.3539   82.2231   11.9777 C.ar    1  UNL1       -0.0083
     11 C          62.7990   80.8423   12.1656 C.ar    1  UNL1       -0.0030
     12 C          61.9965   80.5168   13.3903 C.ar    1  UNL1       -0.0002
     13 C          61.7488   81.5722   14.4271 C.ar    1  UNL1        0.0013
     14 C          62.3037   82.9530   14.2391 C.ar    1  UNL1        0.0144
     15 C          63.1062   83.2785   13.0144 C.ar    1  UNL1        0.0476
     16 C          64.6456   89.4064   14.6960 C.3     1  UNL1        0.1488
     17 S          63.7890   90.4844   14.1008 S.3     1  UNL1       -0.0840
     18 C          63.1296   90.2695   12.7706 C.ar    1  UNL1        0.1206
     19 N          62.0060   89.2844   12.6410 N.ar    1  UNL1       -0.2364
     20 C          61.3466   89.0696   11.3109 C.ar    1  UNL1        0.0994
     21 C          60.2230   88.0844   11.1812 C.ar    1  UNL1        0.0207
     22 C          59.5637   87.8696    9.8511 C.ar    1  UNL1        0.0016
     23 C          60.0280   88.6400    8.6507 C.ar    1  UNL1        0.0016
     24 C          61.1516   89.6251    8.7804 C.ar    1  UNL1        0.0206
     25 C          61.8109   89.8399   10.1105 C.ar    1  UNL1        0.0986
     26 N          62.9346   90.8251   10.2402 N.ar    1  UNL1       -0.2461
     27 C          63.5940   91.0399   11.5703 C.ar    1  UNL1        0.0828
     28 C          64.7177   92.0251   11.7000 C.3     1  UNL1        0.0543
@<TRIPOS>BOND
     1     9    10    1
     2    10    11   ar
     3    11    12   ar
     4    12    13   ar
     5    13    14   ar
     6    14    15   ar
     7    15     1    1
     8     1     2   am
     9     2     3    2
    10     2     4   am
    11     4     5   am
    12     5     6    2
    13     5    16    1
    14    16    17    1
    15    17    18    1
    16    18    19   ar
    17    19    20   ar
    18    20    21   ar
    19    21    22   ar
    20    22    23   ar
    21    23    24   ar
    22    24    25   ar
    23    25    26   ar
    24    26    27   ar
    25    27    28    1
    26    15    10   ar
    27    27    18   ar
    28    25    20   ar
    29     1     7    1
    30     4     8    1
@<TRIPOS>MOLECULE
*****
 28 30 0 0 0
SMALL
GASTEIGER

@<TRIPOS>ATOM
      1 N          63.1813   84.6786   13.0228 N.am    1  UNL1       -0.2683
      2 C          62.5157   85.5518   12.0007 C.2     1  UNL1        0.3102
      3 O          61.5631   84.9529   11.0088 O.2     1  UNL1       -0.2521
      4 N          62.8026   87.0237   11.9706 N.am    1  UNL1       -0.2387
      5 C          62.1370   87.8969   10.9486 C.2     1  UNL1        0.2407
      6 O          61.1844   87.2980    9.9566 O.2     1  UNL1       -0.2737
      7 H          63.8066   85.0717   13.6738 H       1  UNL1        0.1564
      8 H          63.4278   87.4168   12.6216 H       1  UNL1        0.1591
      9 C          64.3210   82.8847   10.9054 C.3     1  UNL1        0.0323
     10 C          63.4642   82.3096   11.9942 C.ar    1  UNL1       -0.0083
     11 C          63.1772   80.8377   12.0242 C.ar    1  UNL1       -0.0030
     12 C          62.3205   80.2627   13.1129 C.ar    1  UNL1       -0.0002
     13 C          61.7507   81.1597   14.1716 C.ar    1  UNL1        0.0013
     14 C          62.0376   82.6316   14.1416 C.ar    1  UNL1        0.0144
     15 C          62.8944   83.2066   13.0528 C.ar    1  UNL1        0.0476
     16 C          62.4239   89.3688   10.9184 C.3     1  UNL1        0.1488
     17 S          62.3876   90.1662   12.1884 S.3     1  UNL1       -0.0840
     18 C          63.5738   90.9920   12.5897 C.ar    1  UNL1        0.1206
     19 N          64.0162   91.0226   14.0226 N.ar    1  UNL1       -0.2364
     20 C          65.2024   91.8485   14.4238 C.ar    1  UNL1        0.0994
     21 C          65.6448   91.8791   15.8567 C.ar    1  UNL1        0.0207
     22 C          66.8310   92.7049   16.2579 C.ar    1  UNL1        0.0016
     23 C          67.5747   93.5002   15.2262 C.ar    1  UNL1        0.0016
     24 C          67.1323   93.4696   13.7933 C.ar    1  UNL1        0.0206
     25 C          65.9461   92.6437   13.3921 C.ar    1  UNL1        0.0986
     26 N          65.5037   92.6131   11.9591 N.ar    1  UNL1       -0.2461
     27 C          64.3175   91.7873   11.5579 C.ar    1  UNL1        0.0828
     28 C          63.8750   91.7567   10.1250 C.3     1  UNL1        0.0543
@<TRIPOS>BOND
     1     9    10    1
     2    10    11   ar
     3    11    12   ar
     4    12    13   ar
     5    13    14   ar
     6    14    15   ar
     7    15     1    1
     8     1     2   am
     9     2     3    2
    10     2     4   am
    11     4     5   am
    12     5     6    2
    13     5    16    1
    14    16    17    1
    15    17    18    1
    16    18    19   ar
    17    19    20   ar
    18    20    21   ar
    19    21    22   ar
    20    22    23   ar
    21    23    24   ar
    22    24    25   ar
    23    25    26   ar
    24    26    27   ar
    25    27    28    1
    26    15    10   ar
    27    27    18   ar
    28    25    20   ar
    29     1     7    1
    30     4     8    1
@<TRIPOS>MOLECULE
*****
 28 30 0 0 0
SMALL
GASTEIGER

@<TRIPOS>ATOM
      1 N          63.1547   85.9958   12.9372 N.am    1  UNL1       -0.2683
      2 C          62.6939   86.9404   11.8669 C.2     1  UNL1        0.3102
      3 O          62.0802   86.4048   10.6073 O.2     1  UNL1       -0.2521
      4 N          62.8467   88.4205   12.0563 N.am    1  UNL1       -0.2387
      5 C          62.3858   89.3650   10.9860 C.2     1  UNL1        0.2407
      6 O          61.7722   88.8295    9.7265 O.2     1  UNL1       -0.2737
      7 H          63.5575   86.3473   13.7639 H       1  UNL1        0.1564
      8 H          63.2495   88.7720   12.8830 H       1  UNL1        0.1591
      9 C          62.2273   84.2799   15.2165 C.3     1  UNL1        0.0323
     10 C          62.5381   83.6577   13.8875 C.ar    1  UNL1       -0.0083
     11 C          62.3853   82.1776   13.6982 C.ar    1  UNL1       -0.0030
     12 C          62.6961   81.5554   12.3692 C.ar    1  UNL1       -0.0002
     13 C          63.1599   82.4134   11.2295 C.ar    1  UNL1        0.0013
     14 C          63.3127   83.8935   11.4188 C.ar    1  UNL1        0.0144
     15 C          63.0019   84.5156   12.7478 C.ar    1  UNL1        0.0476
     16 C          62.5387   90.8451   11.1753 C.3     1  UNL1        0.1488
     17 S          63.7891   91.5348   10.7162 S.3     1  UNL1       -0.0840
     18 C          64.8105   91.9822   11.7195 C.ar    1  UNL1        0.1206
     19 N          64.5744   91.7535   13.1831 N.ar    1  UNL1       -0.2364
     20 C          65.5958   92.2009   14.1864 C.ar    1  UNL1        0.0994
     21 C          65.3598   91.9722   15.6499 C.ar    1  UNL1        0.0207
     22 C          66.3812   92.4196   16.6532 C.ar    1  UNL1        0.0016
     23 C          67.6386   93.0956   16.1929 C.ar    1  UNL1        0.0016
     24 C          67.8747   93.3243   14.7294 C.ar    1  UNL1        0.0206
     25 C          66.8533   92.8769   13.7262 C.ar    1  UNL1        0.0986
     26 N          67.0893   93.1056   12.2625 N.ar    1  UNL1       -0.2461
     27 C          66.0679   92.6582   11.2593 C.ar    1  UNL1        0.0828
     28 C          66.3039   92.8869    9.7957 C.3     1  UNL1        0.0543
@<TRIPOS>BOND
     1     9    10    1
     2    10    11   ar
     3    11    12   ar
     4    12    13   ar
     5    13    14   ar
     6    14    15   ar
     7    15     1    1
     8     1     2   am
     9     2     3    2
    10     2     4   am
    11     4     5   am
    12     5     6    2
    13     5    16    1
    14    16    17    1
    15    17    18    1
    16    18    19   ar
    17    19    20   ar
    18    20    21   ar
    19    21    22   ar
    20    22    23   ar
    21    23    24   ar
    22    24    25   ar
    23    25    26   ar
    24    26    27   ar
    25    27    28    1
    26    15    10   ar
    27    27    18   ar
    28    25    20   ar
    29     1     7    1
    30     4     8    1
@<TRIPOS>MOLECULE
*****
 28 30 0 0 0
SMALL
GASTEIGER

@<TRIPOS>ATOM
      1 N          62.7191   84.6114   12.0505 N.am    1  UNL1       -0.2683
      2 C          63.1292   85.7350   12.9556 C.2     1  UNL1        0.3102
      3 O          63.4863   85.4543   14.3852 O.2     1  UNL1       -0.2521
      4 N          63.1822   87.1393   12.4312 N.am    1  UNL1       -0.2387
      5 C          63.5924   88.2630   13.3363 C.2     1  UNL1        0.2407
      6 O          63.9495   87.9823   14.7658 O.2     1  UNL1       -0.2737
      7 H          62.4847   84.7956   11.1122 H       1  UNL1        0.1564
      8 H          62.9479   87.3236   11.4929 H       1  UNL1        0.1591
      9 C          63.8531   82.3594   10.4249 C.3     1  UNL1        0.0323
     10 C          63.2331   82.0810   11.7622 C.ar    1  UNL1       -0.0083
     11 C          63.1801   80.6767   12.2866 C.ar    1  UNL1       -0.0030
     12 C          62.5601   80.3984   13.6238 C.ar    1  UNL1       -0.0002
     13 C          61.9931   81.5245   14.4366 C.ar    1  UNL1        0.0013
     14 C          62.0461   82.9288   13.9121 C.ar    1  UNL1        0.0144
     15 C          62.6660   83.2070   12.5750 C.ar    1  UNL1        0.0476
     16 C          63.6454   89.6673   12.8119 C.3     1  UNL1        0.1488
     17 S          62.4994   90.2133   12.0129 S.3     1  UNL1       -0.0840
     18 C          61.7793   89.3321   11.0355 C.ar    1  UNL1        0.1206
     19 N          62.5203   88.2392   10.3239 N.ar    1  UNL1       -0.2364
     20 C          61.8003   87.3580    9.3466 C.ar    1  UNL1        0.0994
     21 C          62.5412   86.2650    8.6350 C.ar    1  UNL1        0.0207
     22 C          61.8212   85.3839    7.6577 C.ar    1  UNL1        0.0016
     23 C          60.3602   85.5958    7.3919 C.ar    1  UNL1        0.0016
     24 C          59.6192   86.6887    8.1035 C.ar    1  UNL1        0.0206
     25 C          60.3393   87.5698    9.0808 C.ar    1  UNL1        0.0986
     26 N          59.5983   88.6628    9.7925 N.ar    1  UNL1       -0.2461
     27 C          60.3183   89.5439   10.7698 C.ar    1  UNL1        0.0828
     28 C          59.5774   90.6370   11.4814 C.3     1  UNL1        0.0543
@<TRIPOS>BOND
     1     9    10    1
     2    10    11   ar
     3    11    12   ar
     4    12    13   ar
     5    13    14   ar
     6    14    15   ar
     7    15     1    1
     8     1     2   am
     9     2     3    2
    10     2     4   am
    11     4     5   am
    12     5     6    2
    13     5    16    1
    14    16    17    1
    15    17    18    1
    16    18    19   ar
    17    19    20   ar
    18    20    21   ar
    19    21    22   ar
    20    22    23   ar
    21    23    24   ar
    22    24    25   ar
    23    25    26   ar
    24    26    27   ar
    25    27    28    1
    26    15    10   ar
    27    27    18   ar
    28    25    20   ar
    29     1     7    1
    30     4     8    1
@<TRIPOS>MOLECULE
*****
 28 30 0 0 0
SMALL
GASTEIGER

@<TRIPOS>ATOM
      1 N          61.7405   86.0597   10.8292 N.am    1  UNL1       -0.2683
      2 C          62.4033   87.2443   11.4676 C.2     1  UNL1        0.3102
      3 O          62.3640   88.5816   10.7893 O.2     1  UNL1       -0.2521
      4 N          63.1053   87.0916   12.7844 N.am    1  UNL1       -0.2387
      5 C          63.7681   88.2761   13.4228 C.2     1  UNL1        0.2407
      6 O          63.7288   89.6134   12.7445 O.2     1  UNL1       -0.2737
      7 H          61.7663   85.1820   11.2744 H       1  UNL1        0.1564
      8 H          63.1311   86.2139   13.2296 H       1  UNL1        0.1591
      9 C          62.9528   84.9044    8.3402 C.3     1  UNL1        0.0323
     10 C          61.6446   85.6348    8.2679 C.ar    1  UNL1       -0.0083
     11 C          60.9427   85.7875    6.9512 C.ar    1  UNL1       -0.0030
     12 C          59.6345   86.5179    6.8789 C.ar    1  UNL1       -0.0002
     13 C          59.0284   87.0956    8.1235 C.ar    1  UNL1        0.0013
     14 C          59.7304   86.9429    9.4402 C.ar    1  UNL1        0.0144
     15 C          61.0385   86.2125    9.5124 C.ar    1  UNL1        0.0476
     16 C          64.4701   88.1234   14.7395 C.3     1  UNL1        0.1488
     17 S          65.0310   86.7912   15.1403 S.3     1  UNL1       -0.0840
     18 C          64.2185   85.5456   14.9443 C.ar    1  UNL1        0.1206
     19 N          64.4600   84.6731   13.7484 N.ar    1  UNL1       -0.2364
     20 C          63.6475   83.4275   13.5524 C.ar    1  UNL1        0.0994
     21 C          63.8890   82.5549   12.3565 C.ar    1  UNL1        0.0207
     22 C          63.0765   81.3094   12.1605 C.ar    1  UNL1        0.0016
     23 C          62.0225   80.9364   13.1604 C.ar    1  UNL1        0.0016
     24 C          61.7809   81.8090   14.3563 C.ar    1  UNL1        0.0206
     25 C          62.5934   83.0545   14.5523 C.ar    1  UNL1        0.0986
     26 N          62.3519   83.9272   15.7483 N.ar    1  UNL1       -0.2461
     27 C          63.1645   85.1727   15.9442 C.ar    1  UNL1        0.0828
     28 C          62.9229   86.0453   17.1402 C.3     1  UNL1        0.0543
@<TRIPOS>BOND
     1     9    10    1
     2    10    11   ar
     3    11    12   ar
     4    12    13   ar
     5    13    14   ar
     6    14    15   ar
     7    15     1    1
     8     1     2   am
     9     2     3    2
    10     2     4   am
    11     4     5   am
    12     5     6    2
    13     5    16    1
    14    16    17    1
    15    17    18    1
    16    18    19   ar
    17    19    20   ar
    18    20    21   ar
    19    21    22   ar
    20    22    23   ar
    21    23    24   ar
    22    24    25   ar
    23    25    26   ar
    24    26    27   ar
    25    27    28    1
    26    15    10   ar
    27    27    18   ar
    28    25    20   ar
    29     1     7    1
    30     4     8    1
