@<TRIPOS>MOLECULE
*****
 20 22 0 0 0
SMALL
GASTEIGER

@<TRIPOS>ATOM
      1 C          62.3156   85.9810   11.5358 C.ar    1  UNL1        0.1628
      2 N          62.6266   87.4147   11.8482 N.ar    1  UNL1       -0.2204
      3 C          62.0378   88.5099   11.0094 C.ar    1  UNL1        0.1098
      4 C          61.1378   88.1714    9.8580 C.ar    1  UNL1        0.0412
      5 C          60.5489   89.2666    9.0192 C.ar    1  UNL1        0.0035
      6 C          59.6490   88.9281    7.8679 C.ar    1  UNL1        0.0002
      7 C          59.3379   87.4943    7.5555 C.ar    1  UNL1        0.0015
      8 C          59.9268   86.3991    8.3943 C.ar    1  UNL1        0.0192
      9 C          60.8267   86.7377    9.5456 C.ar    1  UNL1        0.0849
     10 N          61.4156   85.6424   10.3845 N.ar    1  UNL1       -0.2265
     11 C          63.2751   82.3558   12.8347 C.ar    1  UNL1        0.1388
     12 C          64.0823   82.6955   14.0525 C.ar    1  UNL1        0.0369
     13 C          64.3006   84.1303   14.4314 C.ar    1  UNL1        0.0032
     14 C          63.7117   85.2254   13.5925 C.ar    1  UNL1        0.0032
     15 C          62.9045   84.8857   12.3747 C.ar    1  UNL1        0.0388
     16 C          62.6862   83.4509   11.9958 C.ar    1  UNL1        0.0399
     17 C          62.2586   80.0215   13.3525 C.3     1  UNL1        0.2525
     18 O          63.0568   80.9209   12.4559 O.3     1  UNL1       -0.4714
     19 S          62.3489   89.9437   11.3218 S.3     1  UNL1       -0.0939
     20 C          63.3265   90.2794   12.4086 C.3     1  UNL1        0.0757
@<TRIPOS>BOND
     1    17    18    1
     2    18    11    1
     3    11    12   ar
     4    12    13   ar
     5    13    14   ar
     6    14    15   ar
     7    15     1    1
     8     1     2   ar
     9     2     3   ar
    10     3    19    1
    11    19    20    1
    12     3     4   ar
    13     4     5   ar
    14     5     6   ar
    15     6     7   ar
    16     7     8   ar
    17     8     9   ar
    18     9    10   ar
    19    15    16   ar
    20    16    11   ar
    21    10     1   ar
    22     9     4   ar
@<TRIPOS>MOLECULE
*****
 20 22 0 0 0
SMALL
GASTEIGER

@<TRIPOS>ATOM
      1 C          62.5191   86.0640   11.7654 C.ar    1  UNL1        0.1628
      2 N          63.2150   86.2789   13.0767 N.ar    1  UNL1       -0.2204
      3 C          63.6869   85.1014   13.8772 C.ar    1  UNL1        0.1098
      4 C          63.4628   83.7089   13.3664 C.ar    1  UNL1        0.0412
      5 C          63.9347   82.5314   14.1668 C.ar    1  UNL1        0.0035
      6 C          63.7106   81.1390   13.6560 C.ar    1  UNL1        0.0002
      7 C          63.0147   80.9242   12.3447 C.ar    1  UNL1        0.0015
      8 C          62.5428   82.1017   11.5442 C.ar    1  UNL1        0.0192
      9 C          62.7669   83.4941   12.0551 C.ar    1  UNL1        0.0849
     10 N          62.2950   84.6717   11.2546 N.ar    1  UNL1       -0.2265
     11 C          60.5275   88.2359    9.1072 C.ar    1  UNL1        0.1388
     12 C          61.1036   89.5968    9.3642 C.ar    1  UNL1        0.0369
     13 C          62.1516   89.7801   10.4216 C.ar    1  UNL1        0.0032
     14 C          62.6234   88.6025   11.2220 C.ar    1  UNL1        0.0032
     15 C          62.0472   87.2416   10.9650 C.ar    1  UNL1        0.0388
     16 C          60.9993   87.0583    9.9076 C.ar    1  UNL1        0.0399
     17 C          59.0393   86.6723    7.6612 C.3     1  UNL1        0.2525
     18 O          59.4795   88.0526    8.0497 O.3     1  UNL1       -0.4714
     19 S          64.3828   85.3163   15.1885 S.3     1  UNL1       -0.0939
     20 C          63.6090   85.8047   16.3771 C.3     1  UNL1        0.0757
@<TRIPOS>BOND
     1    17    18    1
     2    18    11    1
     3    11    12   ar
     4    12    13   ar
     5    13    14   ar
     6    14    15   ar
     7    15     1    1
     8     1     2   ar
     9     2     3   ar
    10     3    19    1
    11    19    20    1
    12     3     4   ar
    13     4     5   ar
    14     5     6   ar
    15     6     7   ar
    16     7     8   ar
    17     8     9   ar
    18     9    10   ar
    19    15    16   ar
    20    16    11   ar
    21    10     1   ar
    22     9     4   ar
@<TRIPOS>MOLECULE
*****
 20 22 0 0 0
SMALL
GASTEIGER

@<TRIPOS>ATOM
      1 C          62.7783   89.0036   11.6055 C.ar    1  UNL1        0.1628
      2 N          62.8167   87.5163   11.7963 N.ar    1  UNL1       -0.2204
      3 C          61.9905   86.6257   10.9164 C.ar    1  UNL1        0.1098
      4 C          61.1259   87.2224    9.8456 C.ar    1  UNL1        0.0412
      5 C          60.2998   86.3319    8.9657 C.ar    1  UNL1        0.0035
      6 C          59.4353   86.9286    7.8950 C.ar    1  UNL1        0.0002
      7 C          59.3969   88.4159    7.7042 C.ar    1  UNL1        0.0015
      8 C          60.2231   89.3065    8.5841 C.ar    1  UNL1        0.0192
      9 C          61.0876   88.7098    9.6548 C.ar    1  UNL1        0.0849
     10 N          61.9138   89.6003   10.5348 N.ar    1  UNL1       -0.2265
     11 C          64.9796   92.0720   12.8257 C.ar    1  UNL1        0.1388
     12 C          65.2569   91.6751   14.2455 C.ar    1  UNL1        0.0369
     13 C          64.7079   90.3878   14.7853 C.ar    1  UNL1        0.0032
     14 C          63.8817   89.4973   13.9053 C.ar    1  UNL1        0.0032
     15 C          63.6045   89.8942   12.4855 C.ar    1  UNL1        0.0388
     16 C          64.1535   91.1815   11.9458 C.ar    1  UNL1        0.0399
     17 C          65.6510   93.5600   10.8045 C.3     1  UNL1        0.2525
     18 O          65.5287   93.3594   12.2860 O.3     1  UNL1       -0.4714
     19 S          62.0289   85.1384   11.1072 S.3     1  UNL1       -0.0939
     20 C          62.7817   84.5497   12.2633 C.3     1  UNL1        0.0757
@<TRIPOS>BOND
     1    17    18    1
     2    18    11    1
     3    11    12   ar
     4    12    13   ar
     5    13    14   ar
     6    14    15   ar
     7    15     1    1
     8     1     2   ar
     9     2     3   ar
    10     3    19    1
    11    19    20    1
    12     3     4   ar
    13     4     5   ar
    14     5     6   ar
    15     6     7   ar
    16     7     8   ar
    17     8     9   ar
    18     9    10   ar
    19    15    16   ar
    20    16    11   ar
    21    10     1   ar
    22     9     4   ar
@<TRIPOS>MOLECULE
*****
 20 22 0 0 0
SMALL
GASTEIGER

@<TRIPOS>ATOM
      1 C          62.3749   85.9709   11.6419 C.ar    1  UNL1        0.1628
      2 N          63.1148   86.2867   12.9079 N.ar    1  UNL1       -0.2204
      3 C          63.6577   85.1754   13.7565 C.ar    1  UNL1        0.1098
      4 C          63.4606   83.7481   13.3391 C.ar    1  UNL1        0.0412
      5 C          64.0035   82.6368   14.1877 C.ar    1  UNL1        0.0035
      6 C          63.8064   81.2096   13.7703 C.ar    1  UNL1        0.0002
      7 C          63.0664   80.8938   12.5043 C.ar    1  UNL1        0.0015
      8 C          62.5235   82.0051   11.6558 C.ar    1  UNL1        0.0192
      9 C          62.7206   83.4323   12.0731 C.ar    1  UNL1        0.0849
     10 N          62.1777   84.5437   11.2245 N.ar    1  UNL1       -0.2265
     11 C          61.8578   89.5764   10.0662 C.ar    1  UNL1        0.1388
     12 C          60.7462   89.3051    9.0962 C.ar    1  UNL1        0.0369
     13 C          60.1775   87.9224    8.9748 C.ar    1  UNL1        0.0032
     14 C          60.7204   86.8111    9.8234 C.ar    1  UNL1        0.0032
     15 C          61.8320   87.0824   10.7933 C.ar    1  UNL1        0.0388
     16 C          62.4006   88.4650   10.9147 C.ar    1  UNL1        0.0399
     17 C          63.5805   91.2172   11.1103 C.3     1  UNL1        0.2525
     18 O          62.4264   90.9592   10.1875 O.3     1  UNL1       -0.4714
     19 S          64.3977   85.4912   15.0225 S.3     1  UNL1       -0.0939
     20 C          63.6379   85.7857   16.2818 C.3     1  UNL1        0.0757
@<TRIPOS>BOND
     1    17    18    1
     2    18    11    1
     3    11    12   ar
     4    12    13   ar
     5    13    14   ar
     6    14    15   ar
     7    15     1    1
     8     1     2   ar
     9     2     3   ar
    10     3    19    1
    11    19    20    1
    12     3     4   ar
    13     4     5   ar
    14     5     6   ar
    15     6     7   ar
    16     7     8   ar
    17     8     9   ar
    18     9    10   ar
    19    15    16   ar
    20    16    11   ar
    21    10     1   ar
    22     9     4   ar
@<TRIPOS>MOLECULE
*****
 20 22 0 0 0
SMALL
GASTEIGER

@<TRIPOS>ATOM
      1 C          62.1870   85.9696   11.1551 C.ar    1  UNL1        0.1628
      2 N          62.4505   87.4014   11.5166 N.ar    1  UNL1       -0.2204
      3 C          61.8293   88.5045   10.7123 C.ar    1  UNL1        0.1098
      4 C          60.9445   88.1760    9.5464 C.ar    1  UNL1        0.0412
      5 C          60.3233   89.2792    8.7421 C.ar    1  UNL1        0.0035
      6 C          59.4385   88.9507    7.5762 C.ar    1  UNL1        0.0002
      7 C          59.1749   87.5189    7.2148 C.ar    1  UNL1        0.0015
      8 C          59.7961   86.4158    8.0191 C.ar    1  UNL1        0.0192
      9 C          60.6809   86.7443    9.1849 C.ar    1  UNL1        0.0849
     10 N          61.3022   85.6411    9.9893 N.ar    1  UNL1       -0.2265
     11 C          63.8354   84.0095   14.1867 C.ar    1  UNL1        0.1388
     12 C          64.0508   82.6600   13.5682 C.ar    1  UNL1        0.0369
     13 C          63.6449   82.4138   12.1453 C.ar    1  UNL1        0.0032
     14 C          63.0237   83.5170   11.3410 C.ar    1  UNL1        0.0032
     15 C          62.8083   84.8664   11.9595 C.ar    1  UNL1        0.0388
     16 C          63.2141   85.1126   13.3824 C.ar    1  UNL1        0.0399
     17 C          63.8165   85.5159   16.3034 C.3     1  UNL1        0.2525
     18 O          64.2412   84.2557   15.6097 O.3     1  UNL1       -0.4714
     19 S          62.0929   89.9363   11.0738 S.3     1  UNL1       -0.0939
     20 C          63.1250   90.2705   12.1095 C.3     1  UNL1        0.0757
@<TRIPOS>BOND
     1    17    18    1
     2    18    11    1
     3    11    12   ar
     4    12    13   ar
     5    13    14   ar
     6    14    15   ar
     7    15     1    1
     8     1     2   ar
     9     2     3   ar
    10     3    19    1
    11    19    20    1
    12     3     4   ar
    13     4     5   ar
    14     5     6   ar
    15     6     7   ar
    16     7     8   ar
    17     8     9   ar
    18     9    10   ar
    19    15    16   ar
    20    16    11   ar
    21    10     1   ar
    22     9     4   ar
@<TRIPOS>MOLECULE
*****
 20 22 0 0 0
SMALL
GASTEIGER

@<TRIPOS>ATOM
      1 C          64.0325   89.3723   14.3140 C.ar    1  UNL1        0.1628
      2 N          63.2882   89.4287   13.0129 N.ar    1  UNL1       -0.2204
      3 C          63.5669   90.5330   12.0367 C.ar    1  UNL1        0.1098
      4 C          64.5899   91.5809   12.3617 C.ar    1  UNL1        0.0412
      5 C          64.8685   92.6852   11.3856 C.ar    1  UNL1        0.0035
      6 C          65.8914   93.7330   11.7105 C.ar    1  UNL1        0.0002
      7 C          66.6357   93.6766   13.0117 C.ar    1  UNL1        0.0015
      8 C          66.3570   92.5723   13.9878 C.ar    1  UNL1        0.0192
      9 C          65.3341   91.5245   13.6628 C.ar    1  UNL1        0.0849
     10 N          65.0554   90.4201   14.6390 N.ar    1  UNL1       -0.2265
     11 C          63.8076   85.7453   15.9092 C.ar    1  UNL1        0.1388
     12 C          63.1963   86.0595   17.2425 C.ar    1  UNL1        0.0369
     13 C          62.8638   87.4778   17.5996 C.ar    1  UNL1        0.0032
     14 C          63.1425   88.5821   16.6235 C.ar    1  UNL1        0.0032
     15 C          63.7538   88.2680   15.2902 C.ar    1  UNL1        0.0388
     16 C          64.0863   86.8496   14.9330 C.ar    1  UNL1        0.0399
     17 C          63.0504   83.3819   15.1406 C.3     1  UNL1        0.2525
     18 O          64.1401   84.3269   15.5520 O.3     1  UNL1       -0.4714
     19 S          62.8226   90.5894   10.7356 S.3     1  UNL1       -0.0939
     20 C          62.2957   89.3283   10.1177 C.3     1  UNL1        0.0757
@<TRIPOS>BOND
     1    17    18    1
     2    18    11    1
     3    11    12   ar
     4    12    13   ar
     5    13    14   ar
     6    14    15   ar
     7    15     1    1
     8     1     2   ar
     9     2     3   ar
    10     3    19    1
    11    19    20    1
    12     3     4   ar
    13     4     5   ar
    14     5     6   ar
    15     6     7   ar
    16     7     8   ar
    17     8     9   ar
    18     9    10   ar
    19    15    16   ar
    20    16    11   ar
    21    10     1   ar
    22     9     4   ar
@<TRIPOS>MOLECULE
*****
 20 22 0 0 0
SMALL
GASTEIGER

@<TRIPOS>ATOM
      1 C          63.0137   85.9213   12.1797 C.ar    1  UNL1        0.1628
      2 N          62.3746   86.7479   11.1035 N.ar    1  UNL1       -0.2204
      3 C          62.4234   88.2452   11.1792 C.ar    1  UNL1        0.1098
      4 C          63.1112   88.9159   12.3313 C.ar    1  UNL1        0.0412
      5 C          63.1599   90.4132   12.4070 C.ar    1  UNL1        0.0035
      6 C          63.8477   91.0838   13.5590 C.ar    1  UNL1        0.0002
      7 C          64.4867   90.2572   14.6353 C.ar    1  UNL1        0.0015
      8 C          64.4380   88.7599   14.5595 C.ar    1  UNL1        0.0192
      9 C          63.7502   88.0893   13.4075 C.ar    1  UNL1        0.0849
     10 N          63.7015   86.5919   13.3317 N.ar    1  UNL1       -0.2265
     11 C          62.3634   82.1352   13.1760 C.ar    1  UNL1        0.1388
     12 C          62.8675   81.4294   11.9522 C.ar    1  UNL1        0.0369
     13 C          63.4202   82.2209   10.8042 C.ar    1  UNL1        0.0032
     14 C          63.4690   83.7182   10.8800 C.ar    1  UNL1        0.0032
     15 C          62.9649   84.4240   12.1039 C.ar    1  UNL1        0.0388
     16 C          62.4122   83.6325   13.2519 C.ar    1  UNL1        0.0399
     17 C          60.5399   80.5649   14.1552 C.3     1  UNL1        0.2525
     18 O          61.8106   81.3437   14.3241 O.3     1  UNL1       -0.4714
     19 S          61.7843   89.0718   10.1030 S.3     1  UNL1       -0.0939
     20 C          60.3108   89.3488   10.1453 C.3     1  UNL1        0.0757
@<TRIPOS>BOND
     1    17    18    1
     2    18    11    1
     3    11    12   ar
     4    12    13   ar
     5    13    14   ar
     6    14    15   ar
     7    15     1    1
     8     1     2   ar
     9     2     3   ar
    10     3    19    1
    11    19    20    1
    12     3     4   ar
    13     4     5   ar
    14     5     6   ar
    15     6     7   ar
    16     7     8   ar
    17     8     9   ar
    18     9    10   ar
    19    15    16   ar
    20    16    11   ar
    21    10     1   ar
    22     9     4   ar
@<TRIPOS>MOLECULE
*****
 20 22 0 0 0
SMALL
GASTEIGER

@<TRIPOS>ATOM
      1 C          63.6025   90.7059   11.6352 C.ar    1  UNL1        0.1628
      2 N          64.2619   91.7342   10.7646 N.ar    1  UNL1       -0.2204
      3 C          65.2641   92.6830   11.3521 C.ar    1  UNL1        0.1098
      4 C          65.6070   92.6036   12.8103 C.ar    1  UNL1        0.0412
      5 C          66.6093   93.5524   13.3978 C.ar    1  UNL1        0.0035
      6 C          66.9521   93.4730   14.8559 C.ar    1  UNL1        0.0002
      7 C          66.2928   92.4448   15.7265 C.ar    1  UNL1        0.0015
      8 C          65.2905   91.4959   15.1390 C.ar    1  UNL1        0.0192
      9 C          64.9477   91.5754   13.6809 C.ar    1  UNL1        0.0849
     10 N          63.9454   90.6265   13.0933 N.ar    1  UNL1       -0.2265
     11 C          61.4965   87.4061   10.9829 C.ar    1  UNL1        0.1388
     12 C          60.5957   87.8595    9.8725 C.ar    1  UNL1        0.0369
     13 C          60.6972   89.2617    9.3496 C.ar    1  UNL1        0.0032
     14 C          61.6995   90.2105    9.9372 C.ar    1  UNL1        0.0032
     15 C          62.6002   89.7571   11.0476 C.ar    1  UNL1        0.0388
     16 C          62.4987   88.3548   11.5705 C.ar    1  UNL1        0.0399
     17 C          62.6069   85.3247   12.0715 C.3     1  UNL1        0.2525
     18 O          61.3950   86.0037   11.5057 O.3     1  UNL1       -0.4714
     19 S          65.9235   93.7112   10.4815 S.3     1  UNL1       -0.0939
     20 C          67.1915   93.3760    9.7538 C.3     1  UNL1        0.0757
@<TRIPOS>BOND
     1    17    18    1
     2    18    11    1
     3    11    12   ar
     4    12    13   ar
     5    13    14   ar
     6    14    15   ar
     7    15     1    1
     8     1     2   ar
     9     2     3   ar
    10     3    19    1
    11    19    20    1
    12     3     4   ar
    13     4     5   ar
    14     5     6   ar
    15     6     7   ar
    16     7     8   ar
    17     8     9   ar
    18     9    10   ar
    19    15    16   ar
    20    16    11   ar
    21    10     1   ar
    22     9     4   ar
@<TRIPOS>MOLECULE
*****
 20 22 0 0 0
SMALL
GASTEIGER

@<TRIPOS>ATOM
      1 C          62.6404   89.3143   10.9616 C.ar    1  UNL1        0.1628
      2 N          62.9282   88.8879   12.3706 N.ar    1  UNL1       -0.2204
      3 C          63.8365   89.7129   13.2332 C.ar    1  UNL1        0.1098
      4 C          64.4572   90.9644   12.6868 C.ar    1  UNL1        0.0412
      5 C          65.3656   91.7895   13.5494 C.ar    1  UNL1        0.0035
      6 C          65.9862   93.0409   13.0030 C.ar    1  UNL1        0.0002
      7 C          65.6985   93.4674   11.5940 C.ar    1  UNL1        0.0015
      8 C          64.7901   92.6423   10.7314 C.ar    1  UNL1        0.0192
      9 C          64.1695   91.3909   11.2778 C.ar    1  UNL1        0.0849
     10 N          63.2610   90.5658   10.4152 N.ar    1  UNL1       -0.2265
     11 C          59.8501   88.3365    8.3143 C.ar    1  UNL1        0.1388
     12 C          59.9152   86.8391    8.3739 C.ar    1  UNL1        0.0369
     13 C          60.8887   86.1667    9.2959 C.ar    1  UNL1        0.0032
     14 C          61.7971   86.9918   10.1585 C.ar    1  UNL1        0.0032
     15 C          61.7320   88.4892   10.0990 C.ar    1  UNL1        0.0388
     16 C          60.7585   89.1615    9.1769 C.ar    1  UNL1        0.0399
     17 C          59.3735   89.7381    6.1793 C.3     1  UNL1        0.2525
     18 O          58.8766   89.0088    7.3922 O.3     1  UNL1       -0.4714
     19 S          64.1243   89.2865   14.6422 S.3     1  UNL1       -0.0939
     20 C          63.2322   89.7392   15.7599 C.3     1  UNL1        0.0757
@<TRIPOS>BOND
     1    17    18    1
     2    18    11    1
     3    11    12   ar
     4    12    13   ar
     5    13    14   ar
     6    14    15   ar
     7    15     1    1
     8     1     2   ar
     9     2     3   ar
    10     3    19    1
    11    19    20    1
    12     3     4   ar
    13     4     5   ar
    14     5     6   ar
    15     6     7   ar
    16     7     8   ar
    17     8     9   ar
    18     9    10   ar
    19    15    16   ar
    20    16    11   ar
    21    10     1   ar
    22     9     4   ar
