@<TRIPOS>MOLECULE
*****
 36 40 0 0 0
SMALL
GASTEIGER

@<TRIPOS>ATOM
      1 C          63.5629   87.3554   13.2279 C.3     1  UNL1        0.0744
      2 C          62.9884   87.7811   11.9094 C.3     1  UNL1        0.0121
      3 C          63.4213   85.9173   12.8253 C.ar    1  UNL1       -0.0159
      4 C          64.1421   84.8491   13.5929 C.ar    1  UNL1       -0.0039
      5 C          64.0005   83.4111   13.1902 C.ar    1  UNL1       -0.0002
      6 C          63.1381   83.0414   12.0199 C.ar    1  UNL1        0.0030
      7 C          62.4172   84.1096   11.2523 C.ar    1  UNL1       -0.0002
      8 C          62.5588   85.5476   11.6550 C.ar    1  UNL1       -0.0039
      9 C          62.9965   81.6034   11.6173 C.ar    1  UNL1        0.0384
     10 C          62.6629   80.5654   12.6475 C.ar    1  UNL1        0.1033
     11 N          62.5213   79.1274   12.2448 N.ar    1  UNL1       -0.2125
     12 C          62.7133   78.7274   10.8120 C.ar    1  UNL1        0.2137
     13 N          62.5717   77.2894   10.4093 N.pl3   1  UNL1       -0.3274
     14 N          63.0469   79.7654    9.7817 N.ar    1  UNL1       -0.2125
     15 C          63.1884   81.2034   10.1844 C.ar    1  UNL1        0.1033
     16 H          62.3528   76.6081   11.0854 H       1  UNL1        0.1452
     17 H          62.6977   77.0269    9.4688 H       1  UNL1        0.1452
     18 C          64.5016   91.0809   13.7796 C.ar    1  UNL1        0.2628
     19 N          64.7250   89.7594   13.1060 N.ar    1  UNL1       -0.1907
     20 C          63.7044   88.7933   13.6305 C.ar    1  UNL1        0.1837
     21 N          62.8503   89.5178   14.6283 N.ar    1  UNL1       -0.0599
     22 O          63.3430   90.9316   14.7205 O.2     1  UNL1       -0.3326
     23 N          66.2442   94.3074   12.5073 N.ar    1  UNL1       -0.2399
     24 C          65.3161   93.1484   12.2940 C.ar    1  UNL1        0.1019
     25 C          65.2972   92.3320   13.5522 C.ar    1  UNL1        0.0956
     26 C          66.2135   92.9865   14.5432 C.ar    1  UNL1        0.1264
     27 N          66.7988   94.2073   13.8975 N.ar    1  UNL1       -0.1670
     28 C          66.5618   95.3785   11.5063 C.3     1  UNL1        0.2121
     29 C          66.9813   95.3689    7.5600 C.3     1  UNL1        0.1150
     30 N          66.5109   95.7426    8.9345 N.am    1  UNL1       -0.2744
     31 C          65.5192   96.8540    9.1115 C.3     1  UNL1        0.1150
     32 C          67.0322   95.0048   10.1319 C.2     1  UNL1        0.2506
     33 O          68.0239   93.8934    9.9549 O.2     1  UNL1       -0.2727
     34 C          64.1374   86.9296   14.5465 C.3     1  UNL1        0.0106
     35 C          65.2793   86.3811   15.3496 C.3     1  UNL1        0.0008
     36 C          63.9905   86.7409   16.0273 C.3     1  UNL1        0.0008
@<TRIPOS>BOND
     1    29    30    1
     2    30    31    1
     3    30    32   am
     4    32    33    2
     5    32    28    1
     6    28    23    1
     7    23    24   ar
     8    24    25   ar
     9    25    18    1
    10    18    19   ar
    11    19    20   ar
    12    20     1    1
    13     1     2    1
    14     1     3    1
    15     3     4   ar
    16     4     5   ar
    17     5     6   ar
    18     6     9    1
    19     9    10   ar
    20    10    11   ar
    21    11    12   ar
    22    12    13    1
    23    12    14   ar
    24    14    15   ar
    25     6     7   ar
    26     7     8   ar
    27     1    34    1
    28    34    35    1
    29    35    36    1
    30    20    21   ar
    31    21    22   ar
    32    25    26   ar
    33    26    27   ar
    34    27    23   ar
    35    22    18   ar
    36     8     3   ar
    37    36    34    1
    38    15     9   ar
    39    13    16    1
    40    13    17    1
@<TRIPOS>MOLECULE
*****
 36 40 0 0 0
SMALL
GASTEIGER

@<TRIPOS>ATOM
      1 C          61.4623   93.7019    1.1579 C.3     1  UNL1        0.0744
      2 C          62.6515   93.0191    1.7658 C.3     1  UNL1        0.0121
      3 C          62.2539   93.9720   -0.0873 C.ar    1  UNL1       -0.0159
      4 C          62.0670   93.1058   -1.2975 C.ar    1  UNL1       -0.0039
      5 C          62.8586   93.3759   -2.5426 C.ar    1  UNL1       -0.0002
      6 C          63.8371   94.5123   -2.5775 C.ar    1  UNL1        0.0030
      7 C          64.0240   95.3785   -1.3673 C.ar    1  UNL1       -0.0002
      8 C          63.2324   95.1084   -0.1222 C.ar    1  UNL1       -0.0039
      9 C          64.6287   94.7824   -3.8227 C.ar    1  UNL1        0.0384
     10 C          65.2537   96.1291   -4.0368 C.ar    1  UNL1        0.1033
     11 N          66.0453   96.3992   -5.2820 N.ar    1  UNL1       -0.2125
     12 C          66.2119   95.3226   -6.3131 C.ar    1  UNL1        0.2137
     13 N          67.0034   95.5926   -7.5582 N.pl3   1  UNL1       -0.3274
     14 N          65.5868   93.9758   -6.0990 N.ar    1  UNL1       -0.2125
     15 C          64.7953   93.7058   -4.8538 C.ar    1  UNL1        0.1033
     16 H          67.4136   96.4765   -7.6987 H       1  UNL1        0.1452
     17 H          67.1127   94.8860   -8.2350 H       1  UNL1        0.1452
     18 C          59.5575   92.2793    4.2260 C.ar    1  UNL1        0.2628
     19 N          60.3751   92.0809    2.9842 N.ar    1  UNL1       -0.1907
     20 C          60.6708   93.4318    2.4031 C.ar    1  UNL1        0.1837
     21 N          60.0359   94.4651    3.2858 N.ar    1  UNL1       -0.0599
     22 O          59.3478   93.7529    4.4125 O.2     1  UNL1       -0.3326
     23 N          58.9485   89.3363    6.6824 N.ar    1  UNL1       -0.2399
     24 C          59.8753   90.2510    5.9379 C.ar    1  UNL1        0.1019
     25 C          59.0404   91.1946    5.1238 C.ar    1  UNL1        0.0956
     26 C          57.5976   90.8630    5.3653 C.ar    1  UNL1        0.1264
     27 N          57.5408   89.7146    6.3285 N.ar    1  UNL1       -0.1670
     28 C          59.3576   88.2365    7.6168 C.3     1  UNL1        0.2121
     29 C          62.1070   87.8255   10.4490 C.3     1  UNL1        0.1150
     30 N          61.2281   87.5216    9.2720 N.am    1  UNL1       -0.2744
     31 C          61.3409   86.1991    8.5734 C.3     1  UNL1        0.1150
     32 C          60.2364   88.5403    8.7937 C.2     1  UNL1        0.2506
     33 O          60.1236   89.8629    9.4923 O.2     1  UNL1       -0.2727
     34 C          60.2731   94.3847    0.5501 C.3     1  UNL1        0.0106
     35 C          59.5546   95.6436    0.1644 C.3     1  UNL1        0.0008
     36 C          58.9318   94.3084   -0.1170 C.3     1  UNL1        0.0008
@<TRIPOS>BOND
     1    29    30    1
     2    30    31    1
     3    30    32   am
     4    32    33    2
     5    32    28    1
     6    28    23    1
     7    23    24   ar
     8    24    25   ar
     9    25    18    1
    10    18    19   ar
    11    19    20   ar
    12    20     1    1
    13     1     2    1
    14     1     3    1
    15     3     4   ar
    16     4     5   ar
    17     5     6   ar
    18     6     9    1
    19     9    10   ar
    20    10    11   ar
    21    11    12   ar
    22    12    13    1
    23    12    14   ar
    24    14    15   ar
    25     6     7   ar
    26     7     8   ar
    27     1    34    1
    28    34    35    1
    29    35    36    1
    30    20    21   ar
    31    21    22   ar
    32    25    26   ar
    33    26    27   ar
    34    27    23   ar
    35    22    18   ar
    36     8     3   ar
    37    36    34    1
    38    15     9   ar
    39    13    16    1
    40    13    17    1
@<TRIPOS>MOLECULE
*****
 36 40 0 0 0
SMALL
GASTEIGER

@<TRIPOS>ATOM
      1 C          60.4227   87.9720    8.1725 C.3     1  UNL1        0.0744
      2 C          60.0085   86.8620    7.2525 C.3     1  UNL1        0.0121
      3 C          61.0140   86.9681    9.1174 C.ar    1  UNL1       -0.0159
      4 C          60.6417   86.9955   10.5701 C.ar    1  UNL1       -0.0039
      5 C          61.2330   85.9918   11.5149 C.ar    1  UNL1       -0.0002
      6 C          62.1966   84.9606   11.0070 C.ar    1  UNL1        0.0030
      7 C          62.5690   84.9332    9.5542 C.ar    1  UNL1       -0.0002
      8 C          61.9777   85.9370    8.6094 C.ar    1  UNL1       -0.0039
      9 C          62.7879   83.9567   11.9519 C.ar    1  UNL1        0.0384
     10 C          63.3805   84.4100   13.2532 C.ar    1  UNL1        0.1033
     11 N          63.9719   83.4061   14.1981 N.ar    1  UNL1       -0.2125
     12 C          63.9705   81.9491   13.8416 C.ar    1  UNL1        0.2137
     13 N          64.5618   80.9453   14.7864 N.pl3   1  UNL1       -0.3274
     14 N          63.3778   81.4959   12.5403 N.ar    1  UNL1       -0.2125
     15 C          62.7866   82.4997   11.5955 C.ar    1  UNL1        0.1033
     16 H          64.9507   81.2428   15.6405 H       1  UNL1        0.1452
     17 H          64.5609   79.9890   14.5525 H       1  UNL1        0.1452
     18 C          59.6067   90.6783    5.5126 C.ar    1  UNL1        0.2628
     19 N          60.5925   89.8214    6.2500 N.ar    1  UNL1       -0.1907
     20 C          59.8314   88.9757    7.2276 C.ar    1  UNL1        0.1837
     21 N          58.3752   89.3100    7.0943 N.ar    1  UNL1       -0.0599
     22 O          58.2363   90.3623    6.0344 O.2     1  UNL1       -0.3326
     23 N          61.1290   92.9271    2.7393 N.ar    1  UNL1       -0.2399
     24 C          61.2455   91.8022    3.7248 C.ar    1  UNL1        0.1019
     25 C          59.9338   91.6762    4.4415 C.ar    1  UNL1        0.0956
     26 C          59.0068   92.7231    3.8989 C.ar    1  UNL1        0.1264
     27 N          59.7454   93.4962    2.8470 N.ar    1  UNL1       -0.1670
     28 C          62.2070   93.3998    1.8095 C.3     1  UNL1        0.2121
     29 C          62.9855   93.4593   -2.0816 C.3     1  UNL1        0.1150
     30 N          63.0885   93.7370   -0.6111 N.am    1  UNL1       -0.2744
     31 C          64.1759   94.6296   -0.0907 C.3     1  UNL1        0.1150
     32 C          62.1040   93.1221    0.3390 C.2     1  UNL1        0.2506
     33 O          61.0166   92.2294   -0.1813 O.2     1  UNL1       -0.2727
     34 C          60.8369   89.0820    9.0924 C.3     1  UNL1        0.0106
     35 C          61.9149   89.9152    9.7197 C.3     1  UNL1        0.0008
     36 C          60.4763   90.1713   10.0584 C.3     1  UNL1        0.0008
@<TRIPOS>BOND
     1    29    30    1
     2    30    31    1
     3    30    32   am
     4    32    33    2
     5    32    28    1
     6    28    23    1
     7    23    24   ar
     8    24    25   ar
     9    25    18    1
    10    18    19   ar
    11    19    20   ar
    12    20     1    1
    13     1     2    1
    14     1     3    1
    15     3     4   ar
    16     4     5   ar
    17     5     6   ar
    18     6     9    1
    19     9    10   ar
    20    10    11   ar
    21    11    12   ar
    22    12    13    1
    23    12    14   ar
    24    14    15   ar
    25     6     7   ar
    26     7     8   ar
    27     1    34    1
    28    34    35    1
    29    35    36    1
    30    20    21   ar
    31    21    22   ar
    32    25    26   ar
    33    26    27   ar
    34    27    23   ar
    35    22    18   ar
    36     8     3   ar
    37    36    34    1
    38    15     9   ar
    39    13    16    1
    40    13    17    1
@<TRIPOS>MOLECULE
*****
 36 40 0 0 0
SMALL
GASTEIGER

@<TRIPOS>ATOM
      1 C          61.3369   92.9040    1.6369 C.3     1  UNL1        0.0744
      2 C          62.5961   92.3554    2.2398 C.3     1  UNL1        0.0121
      3 C          62.0700   93.1806    0.3577 C.ar    1  UNL1       -0.0159
      4 C          63.4343   93.8029    0.3946 C.ar    1  UNL1       -0.0039
      5 C          64.1673   94.0795   -0.8845 C.ar    1  UNL1       -0.0002
      6 C          63.5361   93.7337   -2.2005 C.ar    1  UNL1        0.0030
      7 C          62.1718   93.1114   -2.2374 C.ar    1  UNL1       -0.0002
      8 C          61.4388   92.8348   -0.9583 C.ar    1  UNL1       -0.0039
      9 C          64.2692   94.0103   -3.4797 C.ar    1  UNL1        0.0384
     10 C          64.6456   92.8778   -4.3883 C.ar    1  UNL1        0.1033
     11 N          65.3787   93.1544   -5.6675 N.ar    1  UNL1       -0.2125
     12 C          65.7353   94.5635   -6.0379 C.ar    1  UNL1        0.2137
     13 N          66.4684   94.8402   -7.3169 N.pl3   1  UNL1       -0.3274
     14 N          65.3588   95.6961   -5.1291 N.ar    1  UNL1       -0.2125
     15 C          64.6258   95.4194   -3.8501 C.ar    1  UNL1        0.1033
     16 H          66.7154   94.0969   -7.9134 H       1  UNL1        0.1452
     17 H          66.7024   95.7650   -7.5600 H       1  UNL1        0.1452
     18 C          59.7307   91.4964    4.8778 C.ar    1  UNL1        0.2628
     19 N          60.5853   91.3235    3.6572 N.ar    1  UNL1       -0.1907
     20 C          60.6039   92.6274    2.9160 C.ar    1  UNL1        0.1837
     21 N          59.7609   93.6062    3.6784 N.ar    1  UNL1       -0.0599
     22 O          59.2212   92.9072    4.8909 O.2     1  UNL1       -0.3326
     23 N          59.6256   88.9894    7.8391 N.ar    1  UNL1       -0.2399
     24 C          60.3003   90.0938    7.0808 C.ar    1  UNL1        0.1019
     25 C          59.4372   90.4433    5.9049 C.ar    1  UNL1        0.0956
     26 C          58.2290   89.5550    5.9365 C.ar    1  UNL1        0.1264
     27 N          58.3454   88.6564    7.1318 N.ar    1  UNL1       -0.1670
     28 C          60.1406   88.3332    9.0859 C.3     1  UNL1        0.2121
     29 C          62.3175   90.6350   11.4760 C.3     1  UNL1        0.1150
     30 N          61.1351   90.0558   10.7571 N.am    1  UNL1       -0.2744
     31 C          59.7651   90.6201   10.9908 C.3     1  UNL1        0.1150
     32 C          61.3228   88.9124    9.8047 C.2     1  UNL1        0.2506
     33 O          62.6929   88.3481    9.5710 O.2     1  UNL1       -0.2727
     34 C          60.0778   93.4526    1.0339 C.3     1  UNL1        0.0106
     35 C          58.7187   93.2313    0.4391 C.3     1  UNL1        0.0008
     36 C          59.2560   94.6242    0.5844 C.3     1  UNL1        0.0008
@<TRIPOS>BOND
     1    29    30    1
     2    30    31    1
     3    30    32   am
     4    32    33    2
     5    32    28    1
     6    28    23    1
     7    23    24   ar
     8    24    25   ar
     9    25    18    1
    10    18    19   ar
    11    19    20   ar
    12    20     1    1
    13     1     2    1
    14     1     3    1
    15     3     4   ar
    16     4     5   ar
    17     5     6   ar
    18     6     9    1
    19     9    10   ar
    20    10    11   ar
    21    11    12   ar
    22    12    13    1
    23    12    14   ar
    24    14    15   ar
    25     6     7   ar
    26     7     8   ar
    27     1    34    1
    28    34    35    1
    29    35    36    1
    30    20    21   ar
    31    21    22   ar
    32    25    26   ar
    33    26    27   ar
    34    27    23   ar
    35    22    18   ar
    36     8     3   ar
    37    36    34    1
    38    15     9   ar
    39    13    16    1
    40    13    17    1
@<TRIPOS>MOLECULE
*****
 36 40 0 0 0
SMALL
GASTEIGER

@<TRIPOS>ATOM
      1 C          62.9662   86.8633   12.2959 C.3     1  UNL1        0.0744
      2 C          62.2084   87.1016   11.0236 C.3     1  UNL1        0.0121
      3 C          62.9340   85.3859   12.0382 C.ar    1  UNL1       -0.0159
      4 C          63.4533   84.8393   10.7415 C.ar    1  UNL1       -0.0039
      5 C          63.4211   83.3619   10.4838 C.ar    1  UNL1       -0.0002
      6 C          62.8697   82.4312   11.5229 C.ar    1  UNL1        0.0030
      7 C          62.3505   82.9778   12.8197 C.ar    1  UNL1       -0.0002
      8 C          62.3827   84.4551   13.0773 C.ar    1  UNL1       -0.0039
      9 C          62.8376   80.9538   11.2652 C.ar    1  UNL1        0.0384
     10 C          62.9250   80.4355    9.8604 C.ar    1  UNL1        0.1033
     11 N          62.8928   78.9581    9.6027 N.ar    1  UNL1       -0.2125
     12 C          62.7733   77.9991   10.7499 C.ar    1  UNL1        0.2137
     13 N          62.7411   76.5218   10.4922 N.pl3   1  UNL1       -0.3274
     14 N          62.6858   78.5175   12.1548 N.ar    1  UNL1       -0.2125
     15 C          62.7180   79.9948   12.4124 C.ar    1  UNL1        0.1033
     16 H          62.7985   76.1815    9.5702 H       1  UNL1        0.1452
     17 H          62.6626   75.8924   11.2452 H       1  UNL1        0.1452
     18 C          63.7890   90.6178   12.8355 C.ar    1  UNL1        0.2628
     19 N          64.2165   89.2152   12.5197 N.ar    1  UNL1       -0.1907
     20 C          62.9983   88.3406   12.5536 C.ar    1  UNL1        0.1837
     21 N          61.8179   89.2027   12.8903 N.ar    1  UNL1       -0.0599
     22 O          62.3065   90.6102   13.0646 O.2     1  UNL1       -0.3326
     23 N          65.9357   93.8066   12.2986 N.ar    1  UNL1       -0.2399
     24 C          65.0011   92.7539   11.7806 C.ar    1  UNL1        0.1019
     25 C          64.6863   91.8176   12.9094 C.ar    1  UNL1        0.0956
     26 C          65.4264   92.2916   14.1249 C.ar    1  UNL1        0.1264
     27 N          66.1986   93.5209   13.7475 N.ar    1  UNL1       -0.1670
     28 C          66.5072   94.9452   11.5067 C.3     1  UNL1        0.2121
     29 C          68.2599   93.2401    8.3808 C.3     1  UNL1        0.1150
     30 N          67.7695   93.4710    9.7795 N.am    1  UNL1       -0.2744
     31 C          68.0510   92.4583   10.8497 C.3     1  UNL1        0.1150
     32 C          66.9976   94.7144   10.1080 C.2     1  UNL1        0.2506
     33 O          66.7160   95.7271    9.0378 O.2     1  UNL1       -0.2727
     34 C          63.7240   86.6249   13.5682 C.3     1  UNL1        0.0106
     35 C          64.2956   85.6785   14.5819 C.3     1  UNL1        0.0008
     36 C          64.4649   87.1584   14.7583 C.3     1  UNL1        0.0008
@<TRIPOS>BOND
     1    29    30    1
     2    30    31    1
     3    30    32   am
     4    32    33    2
     5    32    28    1
     6    28    23    1
     7    23    24   ar
     8    24    25   ar
     9    25    18    1
    10    18    19   ar
    11    19    20   ar
    12    20     1    1
    13     1     2    1
    14     1     3    1
    15     3     4   ar
    16     4     5   ar
    17     5     6   ar
    18     6     9    1
    19     9    10   ar
    20    10    11   ar
    21    11    12   ar
    22    12    13    1
    23    12    14   ar
    24    14    15   ar
    25     6     7   ar
    26     7     8   ar
    27     1    34    1
    28    34    35    1
    29    35    36    1
    30    20    21   ar
    31    21    22   ar
    32    25    26   ar
    33    26    27   ar
    34    27    23   ar
    35    22    18   ar
    36     8     3   ar
    37    36    34    1
    38    15     9   ar
    39    13    16    1
    40    13    17    1
@<TRIPOS>MOLECULE
*****
 36 40 0 0 0
SMALL
GASTEIGER

@<TRIPOS>ATOM
      1 C          60.4921   88.5207    8.3144 C.3     1  UNL1        0.0744
      2 C          61.1808   89.7280    8.8783 C.3     1  UNL1        0.0121
      3 C          61.0832   87.6750    9.4032 C.ar    1  UNL1       -0.0159
      4 C          62.0816   86.6078    9.0656 C.ar    1  UNL1       -0.0039
      5 C          62.6726   85.7622   10.1544 C.ar    1  UNL1       -0.0002
      6 C          62.2652   85.9838   11.5809 C.ar    1  UNL1        0.0030
      7 C          61.2667   87.0510   11.9186 C.ar    1  UNL1       -0.0002
      8 C          60.6757   87.8966   10.8297 C.ar    1  UNL1       -0.0039
      9 C          62.8563   85.1381   12.6698 C.ar    1  UNL1        0.0384
     10 C          63.7001   85.7709   13.7363 C.ar    1  UNL1        0.1033
     11 N          64.2911   84.9252   14.8252 N.ar    1  UNL1       -0.2125
     12 C          64.0384   83.4468   14.8474 C.ar    1  UNL1        0.2137
     13 N          64.6294   82.6011   15.9362 N.pl3   1  UNL1       -0.3274
     14 N          63.1945   82.8141   13.7808 N.ar    1  UNL1       -0.2125
     15 C          62.6035   83.6598   12.6920 C.ar    1  UNL1        0.1033
     16 H          65.1832   83.0164   16.6362 H       1  UNL1        0.1452
     17 H          64.4635   81.6308   15.9508 H       1  UNL1        0.1452
     18 C          59.6800   90.8187    5.2937 C.ar    1  UNL1        0.2628
     19 N          60.6676   90.1077    6.1707 N.ar    1  UNL1       -0.1907
     20 C          59.9011   89.3663    7.2256 C.ar    1  UNL1        0.1837
     21 N          58.4397   89.6192    7.0005 N.ar    1  UNL1       -0.0599
     22 O          58.3031   90.5167    5.8065 O.2     1  UNL1       -0.3326
     23 N          59.7898   93.1251    2.1738 N.ar    1  UNL1       -0.2399
     24 C          59.0230   92.3791    3.2252 C.ar    1  UNL1        0.1019
     25 C          60.0112   91.6804    4.1113 C.ar    1  UNL1        0.0956
     26 C          61.3887   91.9946    3.6076 C.ar    1  UNL1        0.1264
     27 N          61.2519   92.8875    2.4101 N.ar    1  UNL1       -0.1670
     28 C          59.1983   93.9619    1.0783 C.3     1  UNL1        0.2121
     29 C          59.1082   92.9959   -2.7699 C.3     1  UNL1        0.1150
     30 N          58.6717   93.2021   -1.3497 N.am    1  UNL1       -0.2744
     31 C          57.2720   92.8546   -0.9373 C.3     1  UNL1        0.1150
     32 C          59.6349   93.7558   -0.3419 C.2     1  UNL1        0.2506
     33 O          61.0346   94.1032   -0.7542 O.2     1  UNL1       -0.2727
     34 C          59.8034   87.3134    7.7505 C.3     1  UNL1        0.0106
     35 C          59.8218   86.1021    6.8659 C.3     1  UNL1        0.0008
     36 C          58.5921   86.4334    7.6583 C.3     1  UNL1        0.0008
@<TRIPOS>BOND
     1    29    30    1
     2    30    31    1
     3    30    32   am
     4    32    33    2
     5    32    28    1
     6    28    23    1
     7    23    24   ar
     8    24    25   ar
     9    25    18    1
    10    18    19   ar
    11    19    20   ar
    12    20     1    1
    13     1     2    1
    14     1     3    1
    15     3     4   ar
    16     4     5   ar
    17     5     6   ar
    18     6     9    1
    19     9    10   ar
    20    10    11   ar
    21    11    12   ar
    22    12    13    1
    23    12    14   ar
    24    14    15   ar
    25     6     7   ar
    26     7     8   ar
    27     1    34    1
    28    34    35    1
    29    35    36    1
    30    20    21   ar
    31    21    22   ar
    32    25    26   ar
    33    26    27   ar
    34    27    23   ar
    35    22    18   ar
    36     8     3   ar
    37    36    34    1
    38    15     9   ar
    39    13    16    1
    40    13    17    1
