@<TRIPOS>MOLECULE
*****
 30 34 0 0 0
SMALL
GASTEIGER

@<TRIPOS>ATOM
      1 N          62.2153   88.8018   11.1157 N.pl3   1  UNL1       -0.2892
      2 C          62.5513   87.6394   10.2293 C.3     1  UNL1        0.1095
      3 C          61.6798   87.3178    9.0515 C.3     1  UNL1        0.0939
      4 N          60.4722   88.1586    8.7602 N.3     1  UNL1       -0.2695
      5 C          60.1361   89.3210    9.6467 C.3     1  UNL1        0.0939
      6 C          61.0076   89.6426   10.8244 C.3     1  UNL1        0.1095
      7 C          63.3356   91.5884    9.9842 C.3     1  UNL1        0.1306
      8 N          64.0320   91.5004   11.3098 N.ar    1  UNL1       -0.3217
      9 C          64.9890   92.5097   11.8717 C.ar    1  UNL1        0.0646
     10 C          65.5063   93.8106   11.3333 C.ar    1  UNL1        0.0379
     11 C          66.4767   94.6227   12.1388 C.ar    1  UNL1        0.1004
     12 N          66.9298   94.1338   13.4825 N.ar    1  UNL1       -0.2422
     13 C          66.4125   92.8329   14.0209 C.ar    1  UNL1        0.1018
     14 C          65.4420   92.0208   13.2155 C.ar    1  UNL1        0.0542
     15 C          64.7651   90.7094   13.4841 C.ar    1  UNL1        0.1044
     16 N          64.8297   89.7667   14.6489 N.ar    1  UNL1       -0.2223
     17 C          64.0227   88.5022   14.6360 C.ar    1  UNL1        0.2001
     18 N          63.1513   88.1806   13.4583 N.ar    1  UNL1       -0.2075
     19 C          63.0867   89.1234   12.2934 C.ar    1  UNL1        0.1509
     20 C          63.8936   90.3878   12.3063 C.ar    1  UNL1        0.1100
     21 C          59.6008   87.8370    7.5825 C.3     1  UNL1        0.0769
     22 C          58.5339   88.8003    7.1536 C.3     1  UNL1        0.0437
     23 C          58.8544   89.8841    6.1674 C.ar    1  UNL1       -0.0184
     24 C          57.7612   90.7651    5.6396 C.ar    1  UNL1       -0.0018
     25 C          58.0818   91.8489    4.6533 C.ar    1  UNL1        0.0316
     26 C          59.4956   92.0517    4.1950 C.ar    1  UNL1        0.1674
     27 F          59.8161   93.1355    3.2088 F       1  UNL1       -0.2018
     28 C          60.5889   91.1707    4.7228 C.ar    1  UNL1        0.1671
     29 F          62.0026   91.3735    4.2645 F       1  UNL1       -0.2018
     30 C          60.2683   90.0869    5.7090 C.ar    1  UNL1        0.0277
@<TRIPOS>BOND
     1     7     8    1
     2     8     9   ar
     3     9    10   ar
     4    10    11   ar
     5    11    12   ar
     6    12    13   ar
     7    13    14   ar
     8    14    15   ar
     9    15    16   ar
    10    16    17   ar
    11    17    18   ar
    12    18    19   ar
    13    19     1    1
    14     1     2    1
    15     2     3    1
    16     3     4    1
    17     4    21    1
    18    21    22    1
    19    22    23    1
    20    23    24   ar
    21    24    25   ar
    22    25    26   ar
    23    26    27    1
    24    26    28   ar
    25    28    29    1
    26    28    30   ar
    27     4     5    1
    28     5     6    1
    29    19    20   ar
    30    20     8   ar
    31    14     9   ar
    32    20    15   ar
    33     6     1    1
    34    30    23   ar
@<TRIPOS>MOLECULE
*****
 30 34 0 0 0
SMALL
GASTEIGER

@<TRIPOS>ATOM
      1 N          63.5836   88.9046   12.8682 N.pl3   1  UNL1       -0.2892
      2 C          63.5599   90.2054   12.1218 C.3     1  UNL1        0.1095
      3 C          64.1606   91.4343   12.7375 C.3     1  UNL1        0.0939
      4 N          64.7850   91.3623   14.0995 N.3     1  UNL1       -0.2695
      5 C          64.8086   90.0614   14.8459 C.3     1  UNL1        0.0939
      6 C          64.2079   88.8326   14.2302 C.3     1  UNL1        0.1095
      7 C          61.9411   90.4214   10.5655 C.3     1  UNL1        0.1306
      8 N          61.5876   88.9893   10.2933 N.ar    1  UNL1       -0.3217
      9 C          60.6875   88.4960    9.1995 C.ar    1  UNL1        0.0646
     10 C          59.9238   89.2150    8.1272 C.ar    1  UNL1        0.0379
     11 C          59.0885   88.4389    7.1527 C.ar    1  UNL1        0.1004
     12 N          59.0168   86.9438    7.2504 N.ar    1  UNL1       -0.2422
     13 C          59.7804   86.2248    8.3227 C.ar    1  UNL1        0.1018
     14 C          60.6157   87.0009    9.2973 C.ar    1  UNL1        0.0542
     15 C          61.4716   86.5703   10.4515 C.ar    1  UNL1        0.1044
     16 N          61.7815   85.2178   11.0214 N.ar    1  UNL1       -0.2223
     17 C          62.6921   85.0943   12.2070 C.ar    1  UNL1        0.2001
     18 N          63.2928   86.3232   12.8226 N.ar    1  UNL1       -0.2075
     19 C          62.9829   87.6757   12.2526 C.ar    1  UNL1        0.1509
     20 C          62.0722   87.7992   11.0670 C.ar    1  UNL1        0.1100
     21 C          65.3856   92.5912   14.7151 C.3     1  UNL1        0.0769
     22 C          66.6514   93.1688   14.1545 C.3     1  UNL1        0.0437
     23 C          66.7746   93.4156   12.6800 C.ar    1  UNL1       -0.0184
     24 C          66.2822   94.7045   12.0917 C.ar    1  UNL1       -0.0018
     25 C          66.4055   94.9512   10.6172 C.ar    1  UNL1        0.0316
     26 C          67.0210   93.9091    9.7312 C.ar    1  UNL1        0.1674
     27 F          67.1442   94.1559    8.2568 F       1  UNL1       -0.2018
     28 C          67.5134   92.6201   10.3196 C.ar    1  UNL1        0.1671
     29 F          68.1289   91.5780    9.4336 F       1  UNL1       -0.2018
     30 C          67.3902   92.3734   11.7940 C.ar    1  UNL1        0.0277
@<TRIPOS>BOND
     1     7     8    1
     2     8     9   ar
     3     9    10   ar
     4    10    11   ar
     5    11    12   ar
     6    12    13   ar
     7    13    14   ar
     8    14    15   ar
     9    15    16   ar
    10    16    17   ar
    11    17    18   ar
    12    18    19   ar
    13    19     1    1
    14     1     2    1
    15     2     3    1
    16     3     4    1
    17     4    21    1
    18    21    22    1
    19    22    23    1
    20    23    24   ar
    21    24    25   ar
    22    25    26   ar
    23    26    27    1
    24    26    28   ar
    25    28    29    1
    26    28    30   ar
    27     4     5    1
    28     5     6    1
    29    19    20   ar
    30    20     8   ar
    31    14     9   ar
    32    20    15   ar
    33     6     1    1
    34    30    23   ar
@<TRIPOS>MOLECULE
*****
 30 34 0 0 0
SMALL
GASTEIGER

@<TRIPOS>ATOM
      1 N          63.3625   88.9516   12.5170 N.pl3   1  UNL1       -0.2892
      2 C          63.4151   90.3169   11.8982 C.3     1  UNL1        0.1095
      3 C          64.0516   91.4534   12.6420 C.3     1  UNL1        0.0939
      4 N          64.6354   91.2246   14.0046 N.3     1  UNL1       -0.2695
      5 C          64.5827   89.8592   14.6235 C.3     1  UNL1        0.0939
      6 C          63.9463   88.7228   13.8797 C.3     1  UNL1        0.1095
      7 C          64.4922   86.6113   14.4005 C.3     1  UNL1        0.1306
      8 N          63.7005   85.8309   13.3934 N.ar    1  UNL1       -0.3217
      9 C          63.5402   84.3398   13.3617 C.ar    1  UNL1        0.0646
     10 C          64.0736   83.2539   14.2484 C.ar    1  UNL1        0.0379
     11 C          63.7375   81.8202   13.9634 C.ar    1  UNL1        0.1004
     12 N          62.8680   81.4723   12.7916 N.ar    1  UNL1       -0.2422
     13 C          62.3346   82.5582   11.9049 C.ar    1  UNL1        0.1018
     14 C          62.6707   83.9920   12.1900 C.ar    1  UNL1        0.0542
     15 C          62.2937   85.2680   11.4975 C.ar    1  UNL1        0.1044
     16 N          61.4531   85.5419   10.2858 N.ar    1  UNL1       -0.2223
     17 C          61.2490   86.9524    9.8178 C.ar    1  UNL1        0.2001
     18 N          61.8854   88.0889   10.5615 N.ar    1  UNL1       -0.2075
     19 C          62.7260   87.8150   11.7733 C.ar    1  UNL1        0.1509
     20 C          62.9302   86.4046   12.2412 C.ar    1  UNL1        0.1100
     21 C          65.2718   92.3612   14.7484 C.3     1  UNL1        0.0769
     22 C          66.5481   92.9667   14.2437 C.3     1  UNL1        0.0437
     23 C          66.7127   93.2591   12.7817 C.ar    1  UNL1       -0.0184
     24 C          66.2725   94.5814   12.2272 C.ar    1  UNL1       -0.0018
     25 C          66.4371   94.8738   10.7651 C.ar    1  UNL1        0.0316
     26 C          67.0420   93.8439    9.8578 C.ar    1  UNL1        0.1674
     27 F          67.2067   94.1364    8.3958 F       1  UNL1       -0.2018
     28 C          67.4823   92.5216   10.4124 C.ar    1  UNL1        0.1671
     29 F          68.0872   91.4917    9.5050 F       1  UNL1       -0.2018
     30 C          67.3176   92.2292   11.8743 C.ar    1  UNL1        0.0277
@<TRIPOS>BOND
     1     7     8    1
     2     8     9   ar
     3     9    10   ar
     4    10    11   ar
     5    11    12   ar
     6    12    13   ar
     7    13    14   ar
     8    14    15   ar
     9    15    16   ar
    10    16    17   ar
    11    17    18   ar
    12    18    19   ar
    13    19     1    1
    14     1     2    1
    15     2     3    1
    16     3     4    1
    17     4    21    1
    18    21    22    1
    19    22    23    1
    20    23    24   ar
    21    24    25   ar
    22    25    26   ar
    23    26    27    1
    24    26    28   ar
    25    28    29    1
    26    28    30   ar
    27     4     5    1
    28     5     6    1
    29    19    20   ar
    30    20     8   ar
    31    14     9   ar
    32    20    15   ar
    33     6     1    1
    34    30    23   ar
@<TRIPOS>MOLECULE
*****
 30 34 0 0 0
SMALL
GASTEIGER

@<TRIPOS>ATOM
      1 N          63.8020   90.1069   12.9724 N.pl3   1  UNL1       -0.2892
      2 C          64.1783   88.7079   13.3607 C.3     1  UNL1        0.1095
      3 C          63.3997   87.5447   12.8214 C.3     1  UNL1        0.0939
      4 N          62.2447   87.7806   11.8938 N.3     1  UNL1       -0.2695
      5 C          61.8684   89.1798   11.5055 C.3     1  UNL1        0.0939
      6 C          62.6470   90.3429   12.0448 C.3     1  UNL1        0.1095
      7 C          64.1499   91.6364   10.1723 C.3     1  UNL1        0.1306
      8 N          64.8670   92.5609   11.1110 N.ar    1  UNL1       -0.3217
      9 C          65.5414   93.8476   10.7374 C.ar    1  UNL1        0.0646
     10 C          65.6981   94.5540    9.4235 C.ar    1  UNL1        0.0379
     11 C          66.4402   95.8558    9.3557 C.ar    1  UNL1        0.1004
     12 N          67.0255   96.4511   10.6019 N.ar    1  UNL1       -0.2422
     13 C          66.8688   95.7447   11.9158 C.ar    1  UNL1        0.1018
     14 C          66.1267   94.4429   11.9835 C.ar    1  UNL1        0.0542
     15 C          65.8141   93.5242   13.1273 C.ar    1  UNL1        0.1044
     16 N          66.1377   93.5965   14.5901 N.ar    1  UNL1       -0.2223
     17 C          65.6828   92.5056   15.5137 C.ar    1  UNL1        0.2001
     18 N          64.9042   91.3424   14.9745 N.ar    1  UNL1       -0.2075
     19 C          64.5806   91.2701   13.5116 C.ar    1  UNL1        0.1509
     20 C          65.0355   92.3610   12.5880 C.ar    1  UNL1        0.1100
     21 C          61.4661   86.6174   11.3546 C.3     1  UNL1        0.0769
     22 C          62.1708   85.5265   10.6040 C.3     1  UNL1        0.0437
     23 C          62.7208   84.3424   11.3426 C.ar    1  UNL1       -0.0184
     24 C          63.5876   83.3489   10.6275 C.ar    1  UNL1       -0.0018
     25 C          64.1376   82.1648   11.3661 C.ar    1  UNL1        0.0316
     26 C          63.8207   81.9743   12.8198 C.ar    1  UNL1        0.1674
     27 F          64.3706   80.7902   13.5584 F       1  UNL1       -0.2018
     28 C          62.9538   82.9679   13.5350 C.ar    1  UNL1        0.1671
     29 F          62.6369   82.7773   14.9887 F       1  UNL1       -0.2018
     30 C          62.4039   84.1519   12.7964 C.ar    1  UNL1        0.0277
@<TRIPOS>BOND
     1     7     8    1
     2     8     9   ar
     3     9    10   ar
     4    10    11   ar
     5    11    12   ar
     6    12    13   ar
     7    13    14   ar
     8    14    15   ar
     9    15    16   ar
    10    16    17   ar
    11    17    18   ar
    12    18    19   ar
    13    19     1    1
    14     1     2    1
    15     2     3    1
    16     3     4    1
    17     4    21    1
    18    21    22    1
    19    22    23    1
    20    23    24   ar
    21    24    25   ar
    22    25    26   ar
    23    26    27    1
    24    26    28   ar
    25    28    29    1
    26    28    30   ar
    27     4     5    1
    28     5     6    1
    29    19    20   ar
    30    20     8   ar
    31    14     9   ar
    32    20    15   ar
    33     6     1    1
    34    30    23   ar
@<TRIPOS>MOLECULE
*****
 30 34 0 0 0
SMALL
GASTEIGER

@<TRIPOS>ATOM
      1 N          45.5627   76.6478   20.0811 N.pl3   1  UNL1       -0.2892
      2 C          44.5051   75.6080   20.3050 C.3     1  UNL1        0.1095
      3 C          44.7323   74.1969   19.8495 C.3     1  UNL1        0.0939
      4 N          46.0170   73.8258   19.1701 N.3     1  UNL1       -0.2695
      5 C          47.0747   74.8656   18.9461 C.3     1  UNL1        0.0939
      6 C          46.8475   76.2765   19.4016 C.3     1  UNL1        0.1095
      7 C          44.8146   77.8410   17.1971 C.3     1  UNL1        0.1306
      8 N          44.6994   79.0587   18.0654 N.ar    1  UNL1       -0.3217
      9 C          44.3240   80.4365   17.6064 C.ar    1  UNL1        0.0646
     10 C          43.9758   80.9837   16.2539 C.ar    1  UNL1        0.0379
     11 C          43.6356   82.4362   16.0974 C.ar    1  UNL1        0.1004
     12 N          43.6437   83.3415   17.2934 N.ar    1  UNL1       -0.2422
     13 C          43.9918   82.7942   18.6459 C.ar    1  UNL1        0.1018
     14 C          44.3320   81.3418   18.8024 C.ar    1  UNL1        0.0542
     15 C          44.7124   80.5234   20.0006 C.ar    1  UNL1        0.1044
     16 N          44.8814   80.8808   21.4475 N.ar    1  UNL1       -0.2223
     17 C          45.2775   79.8272   22.4390 C.ar    1  UNL1        0.2001
     18 N          45.5046   78.4161   21.9835 N.ar    1  UNL1       -0.2075
     19 C          45.3356   78.0588   20.5366 C.ar    1  UNL1        0.1509
     20 C          44.9395   79.1124   19.5451 C.ar    1  UNL1        0.1100
     21 C          46.2441   72.4147   18.7146 C.3     1  UNL1        0.0769
     22 C          45.1315   71.6489   18.0623 C.3     1  UNL1        0.0437
     23 C          45.3227   71.0691   16.6922 C.ar    1  UNL1       -0.0184
     24 C          44.6033   71.6648   15.5186 C.ar    1  UNL1       -0.0018
     25 C          44.7946   71.0850   14.1484 C.ar    1  UNL1        0.0316
     26 C          45.7053   69.9094   13.9519 C.ar    1  UNL1        0.1674
     27 F          45.8966   69.3296   12.5818 F       1  UNL1       -0.2018
     28 C          46.4248   69.3136   15.1256 C.ar    1  UNL1        0.1671
     29 F          47.3355   68.1381   14.9292 F       1  UNL1       -0.2018
     30 C          46.2335   69.8935   16.4957 C.ar    1  UNL1        0.0277
@<TRIPOS>BOND
     1     7     8    1
     2     8     9   ar
     3     9    10   ar
     4    10    11   ar
     5    11    12   ar
     6    12    13   ar
     7    13    14   ar
     8    14    15   ar
     9    15    16   ar
    10    16    17   ar
    11    17    18   ar
    12    18    19   ar
    13    19     1    1
    14     1     2    1
    15     2     3    1
    16     3     4    1
    17     4    21    1
    18    21    22    1
    19    22    23    1
    20    23    24   ar
    21    24    25   ar
    22    25    26   ar
    23    26    27    1
    24    26    28   ar
    25    28    29    1
    26    28    30   ar
    27     4     5    1
    28     5     6    1
    29    19    20   ar
    30    20     8   ar
    31    14     9   ar
    32    20    15   ar
    33     6     1    1
    34    30    23   ar
@<TRIPOS>MOLECULE
*****
 30 34 0 0 0
SMALL
GASTEIGER

@<TRIPOS>ATOM
      1 N          45.1734   77.6829   19.4215 N.pl3   1  UNL1       -0.2892
      2 C          46.4508   76.9177   19.2418 C.3     1  UNL1        0.1095
      3 C          46.4536   75.4228   19.3667 C.3     1  UNL1        0.0939
      4 N          45.1789   74.6933   19.6714 N.3     1  UNL1       -0.2695
      5 C          43.9013   75.4586   19.8511 C.3     1  UNL1        0.0939
      6 C          43.8986   76.9533   19.7262 C.3     1  UNL1        0.1095
      7 C          44.3172   77.7842   16.3300 C.3     1  UNL1        0.1306
      8 N          44.4389   79.2433   16.6563 N.ar    1  UNL1       -0.3217
      9 C          44.2001   80.3814   15.7089 C.ar    1  UNL1        0.0646
     10 C          43.7996   80.4173   14.2638 C.ar    1  UNL1        0.0379
     11 C          43.6334   81.7336   13.5641 C.ar    1  UNL1        0.1004
     12 N          43.8677   83.0141   14.3095 N.ar    1  UNL1       -0.2422
     13 C          44.2681   82.9782   15.7545 C.ar    1  UNL1        0.1018
     14 C          44.4343   81.6619   16.4542 C.ar    1  UNL1        0.0542
     15 C          44.8179   81.3150   17.8623 C.ar    1  UNL1        0.1044
     16 N          45.1650   82.1672   19.0469 N.ar    1  UNL1       -0.2223
     17 C          45.5149   81.5247   20.3564 C.ar    1  UNL1        0.2001
     18 N          45.5177   80.0299   20.4812 N.ar    1  UNL1       -0.2075
     19 C          45.1706   79.1777   19.2967 C.ar    1  UNL1        0.1509
     20 C          44.8207   79.8203   17.9872 C.ar    1  UNL1        0.1100
     21 C          45.1817   73.1985   19.7962 C.3     1  UNL1        0.0769
     22 C          46.1821   72.3838   19.0311 C.3     1  UNL1        0.0437
     23 C          45.8680   71.9257   17.6378 C.ar    1  UNL1       -0.0184
     24 C          45.1341   72.8346   16.6970 C.ar    1  UNL1       -0.0018
     25 C          44.8199   72.3763   15.3036 C.ar    1  UNL1        0.0316
     26 C          45.2397   71.0092   14.8511 C.ar    1  UNL1        0.1674
     27 F          44.9256   70.5510   13.4578 F       1  UNL1       -0.2018
     28 C          45.9736   70.1003   15.7920 C.ar    1  UNL1        0.1671
     29 F          46.3934   68.7332   15.3395 F       1  UNL1       -0.2018
     30 C          46.2878   70.5585   17.1853 C.ar    1  UNL1        0.0277
@<TRIPOS>BOND
     1     7     8    1
     2     8     9   ar
     3     9    10   ar
     4    10    11   ar
     5    11    12   ar
     6    12    13   ar
     7    13    14   ar
     8    14    15   ar
     9    15    16   ar
    10    16    17   ar
    11    17    18   ar
    12    18    19   ar
    13    19     1    1
    14     1     2    1
    15     2     3    1
    16     3     4    1
    17     4    21    1
    18    21    22    1
    19    22    23    1
    20    23    24   ar
    21    24    25   ar
    22    25    26   ar
    23    26    27    1
    24    26    28   ar
    25    28    29    1
    26    28    30   ar
    27     4     5    1
    28     5     6    1
    29    19    20   ar
    30    20     8   ar
    31    14     9   ar
    32    20    15   ar
    33     6     1    1
    34    30    23   ar
@<TRIPOS>MOLECULE
*****
 30 34 0 0 0
SMALL
GASTEIGER

@<TRIPOS>ATOM
      1 N          61.7445   92.7741    2.5846 N.pl3   1  UNL1       -0.2892
      2 C          62.2175   91.5864    3.3691 C.3     1  UNL1        0.1095
      3 C          61.3391   90.9889    4.4282 C.3     1  UNL1        0.0939
      4 N          59.9877   91.5791    4.7026 N.3     1  UNL1       -0.2695
      5 C          59.5147   92.7669    3.9181 C.3     1  UNL1        0.0939
      6 C          60.3930   93.3643    2.8591 C.3     1  UNL1        0.1095
      7 C          59.5819   92.6584    0.2159 C.3     1  UNL1        0.1306
      8 N          60.7622   93.2643   -0.4839 N.ar    1  UNL1       -0.3217
      9 C          60.8167   93.6761   -1.9253 C.ar    1  UNL1        0.0646
     10 C          59.7984   93.6174   -3.0250 C.ar    1  UNL1        0.0379
     11 C          60.1468   94.1137   -4.3970 C.ar    1  UNL1        0.1004
     12 N          61.5135   94.6687   -4.6691 N.ar    1  UNL1       -0.2422
     13 C          62.5318   94.7274   -3.5694 C.ar    1  UNL1        0.1018
     14 C          62.1834   94.2311   -2.1974 C.ar    1  UNL1        0.0542
     15 C          62.9736   94.1623   -0.9243 C.ar    1  UNL1        0.1044
     16 N          64.3794   94.5666   -0.5924 N.ar    1  UNL1       -0.2223
     17 C          64.9070   94.3734    0.7984 C.ar    1  UNL1        0.2001
     18 N          64.0286   93.7759    1.8574 N.ar    1  UNL1       -0.2075
     19 C          62.6228   93.3716    1.5256 C.ar    1  UNL1        0.1509
     20 C          62.0953   93.5648    0.1348 C.ar    1  UNL1        0.1100
     21 C          59.1094   90.9816    5.7617 C.3     1  UNL1        0.0769
     22 C          59.0521   89.4929    5.9365 C.3     1  UNL1        0.0437
     23 C          59.4485   88.8756    7.2448 C.ar    1  UNL1       -0.0184
     24 C          59.2145   87.4137    7.4857 C.ar    1  UNL1       -0.0018
     25 C          59.6110   86.7964    8.7941 C.ar    1  UNL1        0.0316
     26 C          60.2415   87.6410    9.8615 C.ar    1  UNL1        0.1674
     27 F          60.6379   87.0236   11.1698 F       1  UNL1       -0.2018
     28 C          60.4754   89.1029    9.6205 C.ar    1  UNL1        0.1671
     29 F          61.1059   89.9475   10.6878 F       1  UNL1       -0.2018
     30 C          60.0790   89.7202    8.3122 C.ar    1  UNL1        0.0277
@<TRIPOS>BOND
     1     7     8    1
     2     8     9   ar
     3     9    10   ar
     4    10    11   ar
     5    11    12   ar
     6    12    13   ar
     7    13    14   ar
     8    14    15   ar
     9    15    16   ar
    10    16    17   ar
    11    17    18   ar
    12    18    19   ar
    13    19     1    1
    14     1     2    1
    15     2     3    1
    16     3     4    1
    17     4    21    1
    18    21    22    1
    19    22    23    1
    20    23    24   ar
    21    24    25   ar
    22    25    26   ar
    23    26    27    1
    24    26    28   ar
    25    28    29    1
    26    28    30   ar
    27     4     5    1
    28     5     6    1
    29    19    20   ar
    30    20     8   ar
    31    14     9   ar
    32    20    15   ar
    33     6     1    1
    34    30    23   ar
@<TRIPOS>MOLECULE
*****
 30 34 0 0 0
SMALL
GASTEIGER

@<TRIPOS>ATOM
      1 N          63.5954   91.2561   11.4253 N.pl3   1  UNL1       -0.2892
      2 C          63.0301   90.6224   12.6617 C.3     1  UNL1        0.1095
      3 C          61.9495   89.5883   12.5474 C.3     1  UNL1        0.0939
      4 N          61.4342   89.1881   11.1967 N.3     1  UNL1       -0.2695
      5 C          61.9996   89.8219    9.9603 C.3     1  UNL1        0.0939
      6 C          63.0801   90.8559   10.0746 C.3     1  UNL1        0.1095
      7 C          64.7580   90.2522   14.2434 C.3     1  UNL1        0.1306
      8 N          65.6544   91.4176   13.9464 N.ar    1  UNL1       -0.3217
      9 C          66.7783   91.9080   14.8103 C.ar    1  UNL1        0.0646
     10 C          67.3137   91.4304   16.1275 C.ar    1  UNL1        0.0379
     11 C          68.4737   92.1355   16.7656 C.ar    1  UNL1        0.1004
     12 N          69.0982   93.3183   16.0866 N.ar    1  UNL1       -0.2422
     13 C          68.5627   93.7959   14.7693 C.ar    1  UNL1        0.1018
     14 C          67.4028   93.0907   14.1312 C.ar    1  UNL1        0.0542
     15 C          66.6648   93.3313   12.8476 C.ar    1  UNL1        0.1044
     16 N          66.8372   94.3583   11.7680 N.ar    1  UNL1       -0.2223
     17 C          65.9290   94.3513   10.5742 C.ar    1  UNL1        0.2001
     18 N          64.8484   93.3172   10.4600 N.ar    1  UNL1       -0.2075
     19 C          64.6760   92.2902   11.5396 C.ar    1  UNL1        0.1509
     20 C          65.5842   92.2972   12.7334 C.ar    1  UNL1        0.1100
     21 C          60.3536   88.1540   11.0825 C.3     1  UNL1        0.0769
     22 C          60.3947   87.1457    9.9727 C.3     1  UNL1        0.0437
     23 C          61.4855   86.1168    9.9341 C.ar    1  UNL1       -0.0184
     24 C          62.2424   85.8736    8.6622 C.ar    1  UNL1       -0.0018
     25 C          63.3333   84.8447    8.6236 C.ar    1  UNL1        0.0316
     26 C          63.6672   84.0591    9.8570 C.ar    1  UNL1        0.1674
     27 F          64.7581   83.0303    9.8185 F       1  UNL1       -0.2018
     28 C          62.9104   84.3024   11.1291 C.ar    1  UNL1        0.1671
     29 F          63.2443   83.5168   12.3625 F       1  UNL1       -0.2018
     30 C          61.8196   85.3312   11.1676 C.ar    1  UNL1        0.0277
@<TRIPOS>BOND
     1     7     8    1
     2     8     9   ar
     3     9    10   ar
     4    10    11   ar
     5    11    12   ar
     6    12    13   ar
     7    13    14   ar
     8    14    15   ar
     9    15    16   ar
    10    16    17   ar
    11    17    18   ar
    12    18    19   ar
    13    19     1    1
    14     1     2    1
    15     2     3    1
    16     3     4    1
    17     4    21    1
    18    21    22    1
    19    22    23    1
    20    23    24   ar
    21    24    25   ar
    22    25    26   ar
    23    26    27    1
    24    26    28   ar
    25    28    29    1
    26    28    30   ar
    27     4     5    1
    28     5     6    1
    29    19    20   ar
    30    20     8   ar
    31    14     9   ar
    32    20    15   ar
    33     6     1    1
    34    30    23   ar
@<TRIPOS>MOLECULE
*****
 30 34 0 0 0
SMALL
GASTEIGER

@<TRIPOS>ATOM
      1 N          61.9934   88.3250   11.3095 N.pl3   1  UNL1       -0.2892
      2 C          62.1626   87.7335    9.9415 C.3     1  UNL1        0.1095
      3 C          61.2973   88.2023    8.8094 C.3     1  UNL1        0.0939
      4 N          60.2628   89.2625    9.0454 N.3     1  UNL1       -0.2695
      5 C          60.0935   89.8540   10.4134 C.3     1  UNL1        0.0939
      6 C          60.9588   89.3853   11.5454 C.3     1  UNL1        0.1095
      7 C          61.4814   85.1861   10.8783 C.3     1  UNL1        0.1306
      8 N          62.4089   85.1803   12.0571 N.ar    1  UNL1       -0.3217
      9 C          62.9100   83.9644   12.7787 C.ar    1  UNL1        0.0646
     10 C          62.6638   82.4998   12.5683 C.ar    1  UNL1        0.0379
     11 C          63.3166   81.4928   13.4681 C.ar    1  UNL1        0.1004
     12 N          64.2156   81.9503   14.5782 N.ar    1  UNL1       -0.2422
     13 C          64.4618   83.4149   14.7886 C.ar    1  UNL1        0.1018
     14 C          63.8090   84.4220   13.8889 C.ar    1  UNL1        0.0542
     15 C          63.8635   85.9205   13.8534 C.ar    1  UNL1        0.1044
     16 N          64.5893   86.9189   14.7057 N.ar    1  UNL1       -0.2223
     17 C          64.4497   88.3860   14.4259 C.ar    1  UNL1        0.2001
     18 N          63.5845   88.8547   13.2939 N.ar    1  UNL1       -0.2075
     19 C          62.8587   87.8563   12.4416 C.ar    1  UNL1        0.1509
     20 C          62.9982   86.3892   12.7213 C.ar    1  UNL1        0.1100
     21 C          59.3975   89.7312    7.9133 C.3     1  UNL1        0.0769
     22 C          59.7834   89.4229    6.4970 C.3     1  UNL1        0.0437
     23 C          59.8154   90.5185    5.4729 C.ar    1  UNL1       -0.0184
     24 C          58.5557   91.2524    5.1202 C.ar    1  UNL1       -0.0018
     25 C          58.5878   92.3481    4.0961 C.ar    1  UNL1        0.0316
     26 C          59.8795   92.7096    3.4248 C.ar    1  UNL1        0.1674
     27 F          59.9115   93.8052    2.4008 F       1  UNL1       -0.2018
     28 C          61.1392   91.9757    3.7775 C.ar    1  UNL1        0.1671
     29 F          62.4309   92.3373    3.1062 F       1  UNL1       -0.2018
     30 C          61.1072   90.8801    4.8015 C.ar    1  UNL1        0.0277
@<TRIPOS>BOND
     1     7     8    1
     2     8     9   ar
     3     9    10   ar
     4    10    11   ar
     5    11    12   ar
     6    12    13   ar
     7    13    14   ar
     8    14    15   ar
     9    15    16   ar
    10    16    17   ar
    11    17    18   ar
    12    18    19   ar
    13    19     1    1
    14     1     2    1
    15     2     3    1
    16     3     4    1
    17     4    21    1
    18    21    22    1
    19    22    23    1
    20    23    24   ar
    21    24    25   ar
    22    25    26   ar
    23    26    27    1
    24    26    28   ar
    25    28    29    1
    26    28    30   ar
    27     4     5    1
    28     5     6    1
    29    19    20   ar
    30    20     8   ar
    31    14     9   ar
    32    20    15   ar
    33     6     1    1
    34    30    23   ar
