@<TRIPOS>MOLECULE
*****
 18 19 0 0 0
SMALL
GASTEIGER

@<TRIPOS>ATOM
      1 C          64.8494   91.8066   12.2526 C.ar    1  UNL1        0.0609
      2 C          63.7127   91.1362   11.5396 C.ar    1  UNL1        0.1071
      3 N          63.0453   89.9398   12.1506 N.ar    1  UNL1       -0.2417
      4 C          63.5146   89.4139   13.4746 C.ar    1  UNL1        0.0989
      5 C          64.6513   90.0842   14.1876 C.ar    1  UNL1        0.0214
      6 C          65.3187   91.2806   13.5766 C.ar    1  UNL1        0.0137
      7 C          66.4555   91.9510   14.2897 C.ar    1  UNL1        0.0391
      8 C          67.8397   91.8934   13.7148 C.ar    1  UNL1        0.1022
      9 N          68.9765   92.5637   14.4278 N.ar    1  UNL1       -0.2224
     10 C          68.7290   93.2917   15.7158 C.ar    1  UNL1        0.1989
     11 N          67.3447   93.3493   16.2908 N.ar    1  UNL1       -0.2224
     12 C          66.2080   92.6789   15.5777 C.ar    1  UNL1        0.1022
     13 C          66.1842   94.1992   11.0306 C.1     1  UNL1       -0.0689
     14 C          65.5168   93.0029   11.6416 C.1     1  UNL1       -0.0614
     15 N          68.0436   95.2152    9.5270 N.3     1  UNL1       -0.3102
     16 C          66.8516   95.3956   10.4196 C.3     1  UNL1        0.1432
     17 H          68.3666   96.1267    9.2028 H       1  UNL1        0.1198
     18 H          67.7838   94.6414    8.7247 H       1  UNL1        0.1198
@<TRIPOS>BOND
     1    15    16    1
     2    16    13    1
     3    13    14    3
     4    14     1    1
     5     1     2   ar
     6     2     3   ar
     7     3     4   ar
     8     4     5   ar
     9     5     6   ar
    10     6     7    1
    11     7     8   ar
    12     8     9   ar
    13     9    10   ar
    14    10    11   ar
    15    11    12   ar
    16     6     1   ar
    17    12     7   ar
    18    15    17    1
    19    15    18    1
@<TRIPOS>MOLECULE
*****
 18 19 0 0 0
SMALL
GASTEIGER

@<TRIPOS>ATOM
      1 C          64.1941   91.3311   12.0639 C.ar    1  UNL1        0.0609
      2 C          64.7888   92.1293   10.9419 C.ar    1  UNL1        0.1071
      3 N          66.1271   92.7845   11.1147 N.ar    1  UNL1       -0.2417
      4 C          66.8706   92.6413   12.4095 C.ar    1  UNL1        0.0989
      5 C          66.2759   91.8431   13.5315 C.ar    1  UNL1        0.0214
      6 C          64.9376   91.1880   13.3588 C.ar    1  UNL1        0.0137
      7 C          64.3429   90.3897   14.4809 C.ar    1  UNL1        0.0391
      8 C          63.8085   91.0873   15.6965 C.ar    1  UNL1        0.1022
      9 N          63.2138   90.2891   16.8186 N.ar    1  UNL1       -0.2224
     10 C          63.1535   88.7932   16.7251 C.ar    1  UNL1        0.1989
     11 N          63.6879   88.0955   15.5095 N.ar    1  UNL1       -0.2224
     12 C          64.2826   88.8938   14.3874 C.ar    1  UNL1        0.1022
     13 C          61.5175   90.0209   11.7184 C.1     1  UNL1       -0.0689
     14 C          62.8558   90.6760   11.8912 C.1     1  UNL1       -0.0614
     15 N          60.0654   87.8707   11.5856 N.3     1  UNL1       -0.3102
     16 C          60.1793   89.3658   11.5456 C.3     1  UNL1        0.1432
     17 H          59.0910   87.6002   11.4520 H       1  UNL1        0.1198
     18 H          60.3922   87.5288   12.4893 H       1  UNL1        0.1198
@<TRIPOS>BOND
     1    15    16    1
     2    16    13    1
     3    13    14    3
     4    14     1    1
     5     1     2   ar
     6     2     3   ar
     7     3     4   ar
     8     4     5   ar
     9     5     6   ar
    10     6     7    1
    11     7     8   ar
    12     8     9   ar
    13     9    10   ar
    14    10    11   ar
    15    11    12   ar
    16     6     1   ar
    17    12     7   ar
    18    15    17    1
    19    15    18    1
@<TRIPOS>MOLECULE
*****
 18 19 0 0 0
SMALL
GASTEIGER

@<TRIPOS>ATOM
      1 C          64.1650   90.6586   12.9714 C.ar    1  UNL1        0.0609
      2 C          64.6417   91.8848   12.2508 C.ar    1  UNL1        0.1071
      3 N          65.5566   92.8523   12.9413 N.ar    1  UNL1       -0.2417
      4 C          65.9948   92.5938   14.3523 C.ar    1  UNL1        0.0989
      5 C          65.5181   91.3676   15.0729 C.ar    1  UNL1        0.0214
      6 C          64.6032   90.4000   14.3824 C.ar    1  UNL1        0.0137
      7 C          64.1265   89.1738   15.1031 C.ar    1  UNL1        0.0391
      8 C          64.5159   87.8131   14.6063 C.ar    1  UNL1        0.1022
      9 N          64.0392   86.5869   15.3269 N.ar    1  UNL1       -0.2224
     10 C          63.1732   86.7215   16.5443 C.ar    1  UNL1        0.1989
     11 N          62.7838   88.0822   17.0410 N.ar    1  UNL1       -0.2224
     12 C          63.2605   89.3084   16.3204 C.ar    1  UNL1        0.1022
     13 C          62.3351   88.7235   11.5905 C.1     1  UNL1       -0.0689
     14 C          63.2501   89.6911   12.2809 C.1     1  UNL1       -0.0614
     15 N          59.9586   87.7351   11.2365 N.3     1  UNL1       -0.3102
     16 C          61.4202   87.7559   10.9000 C.3     1  UNL1        0.1432
     17 H          59.4910   87.0218   10.6771 H       1  UNL1        0.1198
     18 H          59.5502   88.6476   11.0344 H       1  UNL1        0.1198
@<TRIPOS>BOND
     1    15    16    1
     2    16    13    1
     3    13    14    3
     4    14     1    1
     5     1     2   ar
     6     2     3   ar
     7     3     4   ar
     8     4     5   ar
     9     5     6   ar
    10     6     7    1
    11     7     8   ar
    12     8     9   ar
    13     9    10   ar
    14    10    11   ar
    15    11    12   ar
    16     6     1   ar
    17    12     7   ar
    18    15    17    1
    19    15    18    1
@<TRIPOS>MOLECULE
*****
 18 19 0 0 0
SMALL
GASTEIGER

@<TRIPOS>ATOM
      1 C          65.1222   91.5904   12.8772 C.ar    1  UNL1        0.0609
      2 C          64.1219   90.6836   13.5306 C.ar    1  UNL1        0.1071
      3 N          62.9285   90.2034   12.7591 N.ar    1  UNL1       -0.2417
      4 C          62.7354   90.6301   11.3341 C.ar    1  UNL1        0.0989
      5 C          63.7357   91.5370   10.6807 C.ar    1  UNL1        0.0214
      6 C          64.9291   92.0171   11.4523 C.ar    1  UNL1        0.0137
      7 C          65.9294   92.9240   10.7988 C.ar    1  UNL1        0.0391
      8 C          65.6616   94.3973   10.7119 C.ar    1  UNL1        0.1022
      9 N          66.6618   95.3042   10.0585 N.ar    1  UNL1       -0.2224
     10 C          67.9300   94.7378    9.4918 C.ar    1  UNL1        0.1989
     11 N          68.1978   93.2644    9.5787 N.ar    1  UNL1       -0.2224
     12 C          67.1975   92.3575   10.2322 C.ar    1  UNL1        0.1022
     13 C          67.5089   92.5507   14.4204 C.1     1  UNL1       -0.0689
     14 C          66.3155   92.0706   13.6488 C.1     1  UNL1       -0.0614
     15 N          68.5667   94.1829   16.1429 N.3     1  UNL1       -0.3102
     16 C          68.7023   93.0308   15.1919 C.3     1  UNL1        0.1432
     17 H          69.4696   94.3730   16.5776 H       1  UNL1        0.1198
     18 H          67.8843   93.9497   16.8643 H       1  UNL1        0.1198
@<TRIPOS>BOND
     1    15    16    1
     2    16    13    1
     3    13    14    3
     4    14     1    1
     5     1     2   ar
     6     2     3   ar
     7     3     4   ar
     8     4     5   ar
     9     5     6   ar
    10     6     7    1
    11     7     8   ar
    12     8     9   ar
    13     9    10   ar
    14    10    11   ar
    15    11    12   ar
    16     6     1   ar
    17    12     7   ar
    18    15    17    1
    19    15    18    1
@<TRIPOS>MOLECULE
*****
 18 19 0 0 0
SMALL
GASTEIGER

@<TRIPOS>ATOM
      1 C          63.5184   83.7278   13.5020 C.ar    1  UNL1        0.0609
      2 C          63.7881   82.6519   14.5117 C.ar    1  UNL1        0.1071
      3 N          63.5022   81.2184   14.1747 N.ar    1  UNL1       -0.2417
      4 C          62.9468   80.8610   12.8280 C.ar    1  UNL1        0.0989
      5 C          62.6771   81.9369   11.8183 C.ar    1  UNL1        0.0214
      6 C          62.9630   83.3704   12.1553 C.ar    1  UNL1        0.0137
      7 C          62.6933   84.4464   11.1455 C.ar    1  UNL1        0.0391
      8 C          61.7644   85.5750   11.4821 C.ar    1  UNL1        0.1022
      9 N          61.4947   86.6509   10.4724 N.ar    1  UNL1       -0.2224
     10 C          62.1540   86.5983    9.1260 C.ar    1  UNL1        0.1989
     11 N          63.0830   85.4697    8.7894 N.ar    1  UNL1       -0.2224
     12 C          63.3526   84.3937    9.7992 C.ar    1  UNL1        0.1022
     13 C          64.0901   86.5947   14.1759 C.1     1  UNL1       -0.0689
     14 C          63.8043   85.1613   13.8390 C.1     1  UNL1       -0.0614
     15 N          63.5397   88.7394   15.5350 N.3     1  UNL1       -0.3102
     16 C          64.3760   88.0281   14.5129 C.3     1  UNL1        0.1432
     17 H          63.8714   89.6985   15.6378 H       1  UNL1        0.1198
     18 H          63.6134   88.2564   16.4304 H       1  UNL1        0.1198
@<TRIPOS>BOND
     1    15    16    1
     2    16    13    1
     3    13    14    3
     4    14     1    1
     5     1     2   ar
     6     2     3   ar
     7     3     4   ar
     8     4     5   ar
     9     5     6   ar
    10     6     7    1
    11     7     8   ar
    12     8     9   ar
    13     9    10   ar
    14    10    11   ar
    15    11    12   ar
    16     6     1   ar
    17    12     7   ar
    18    15    17    1
    19    15    18    1
@<TRIPOS>MOLECULE
*****
 18 19 0 0 0
SMALL
GASTEIGER

@<TRIPOS>ATOM
      1 C          63.5301   83.8016   13.5126 C.ar    1  UNL1        0.0609
      2 C          63.8141   82.7346   14.5278 C.ar    1  UNL1        0.1071
      3 N          63.5364   81.2968   14.2025 N.ar    1  UNL1       -0.2417
      4 C          62.9746   80.9261   12.8621 C.ar    1  UNL1        0.0989
      5 C          62.6905   81.9931   11.8469 C.ar    1  UNL1        0.0214
      6 C          62.9683   83.4309   12.1721 C.ar    1  UNL1        0.0137
      7 C          62.6841   84.4979   11.1568 C.ar    1  UNL1        0.0391
      8 C          63.3301   84.4374    9.8044 C.ar    1  UNL1        0.1022
      9 N          63.0461   85.5044    8.7891 N.ar    1  UNL1       -0.2224
     10 C          62.1159   86.6319    9.1262 C.ar    1  UNL1        0.1989
     11 N          61.4699   86.6924   10.4786 N.ar    1  UNL1       -0.2224
     12 C          61.7540   85.6254   11.4939 C.ar    1  UNL1        0.1022
     13 C          64.0855   86.6771   14.1631 C.1     1  UNL1       -0.0689
     14 C          63.8078   85.2393   13.8378 C.1     1  UNL1       -0.0614
     15 N          63.5405   88.8218   15.5243 N.3     1  UNL1       -0.3102
     16 C          64.3632   88.1148   14.4883 C.3     1  UNL1        0.1432
     17 H          63.8642   89.7847   15.6164 H       1  UNL1        0.1198
     18 H          63.6373   88.3434   16.4199 H       1  UNL1        0.1198
@<TRIPOS>BOND
     1    15    16    1
     2    16    13    1
     3    13    14    3
     4    14     1    1
     5     1     2   ar
     6     2     3   ar
     7     3     4   ar
     8     4     5   ar
     9     5     6   ar
    10     6     7    1
    11     7     8   ar
    12     8     9   ar
    13     9    10   ar
    14    10    11   ar
    15    11    12   ar
    16     6     1   ar
    17    12     7   ar
    18    15    17    1
    19    15    18    1
@<TRIPOS>MOLECULE
*****
 18 19 0 0 0
SMALL
GASTEIGER

@<TRIPOS>ATOM
      1 C          61.1118   88.1386    9.6500 C.ar    1  UNL1        0.0609
      2 C          60.2568   89.1093    8.8906 C.ar    1  UNL1        0.1071
      3 N          59.4029   88.6279    7.7552 N.ar    1  UNL1       -0.2417
      4 C          59.4040   87.1758    7.3793 C.ar    1  UNL1        0.0989
      5 C          60.2589   86.2051    8.1387 C.ar    1  UNL1        0.0214
      6 C          61.1128   86.6865    9.2741 C.ar    1  UNL1        0.0137
      7 C          61.9678   85.7157   10.0335 C.ar    1  UNL1        0.0391
      8 C          62.9971   84.8982    9.3109 C.ar    1  UNL1        0.1022
      9 N          63.8521   83.9274   10.0702 N.ar    1  UNL1       -0.2224
     10 C          63.6778   83.7742   11.5522 C.ar    1  UNL1        0.1989
     11 N          62.6485   84.5918   12.2748 N.ar    1  UNL1       -0.2224
     12 C          61.7935   85.5626   11.5154 C.ar    1  UNL1        0.1022
     13 C          62.8196   89.1014   11.9208 C.1     1  UNL1       -0.0689
     14 C          61.9657   88.6200   10.7854 C.1     1  UNL1       -0.0614
     15 N          63.0996   90.5113   14.0850 N.3     1  UNL1       -0.3102
     16 C          63.6735   89.5828   13.0562 C.3     1  UNL1        0.1432
     17 H          63.8141   90.7345   14.7778 H       1  UNL1        0.1198
     18 H          62.3083   90.0615   14.5453 H       1  UNL1        0.1198
@<TRIPOS>BOND
     1    15    16    1
     2    16    13    1
     3    13    14    3
     4    14     1    1
     5     1     2   ar
     6     2     3   ar
     7     3     4   ar
     8     4     5   ar
     9     5     6   ar
    10     6     7    1
    11     7     8   ar
    12     8     9   ar
    13     9    10   ar
    14    10    11   ar
    15    11    12   ar
    16     6     1   ar
    17    12     7   ar
    18    15    17    1
    19    15    18    1
@<TRIPOS>MOLECULE
*****
 18 19 0 0 0
SMALL
GASTEIGER

@<TRIPOS>ATOM
      1 C          64.4552   91.3255   13.0731 C.ar    1  UNL1        0.0609
      2 C          65.5691   92.3181   13.2277 C.ar    1  UNL1        0.1071
      3 N          66.0362   93.1117   12.0437 N.ar    1  UNL1       -0.2417
      4 C          65.3893   92.9128   10.7050 C.ar    1  UNL1        0.0989
      5 C          64.2755   91.9202   10.5504 C.ar    1  UNL1        0.0214
      6 C          63.8084   91.1265   11.7345 C.ar    1  UNL1        0.0137
      7 C          62.6944   90.1338   11.5798 C.ar    1  UNL1        0.0391
      8 C          62.9554   88.6733   11.8006 C.ar    1  UNL1        0.1022
      9 N          61.8415   87.6807   11.6460 N.ar    1  UNL1       -0.2224
     10 C          60.4666   88.1486   11.2705 C.ar    1  UNL1        0.1989
     11 N          60.2057   89.6091   11.0497 N.ar    1  UNL1       -0.2224
     12 C          61.3197   90.6017   11.2044 C.ar    1  UNL1        0.1022
     13 C          63.5211   89.7381   15.4412 C.1     1  UNL1       -0.0689
     14 C          63.9881   90.5318   14.2571 C.1     1  UNL1       -0.0614
     15 N          63.1337   87.4468   16.6029 N.3     1  UNL1       -0.3102
     16 C          63.0540   88.9445   16.6252 C.3     1  UNL1        0.1432
     17 H          62.7765   87.0742   17.4827 H       1  UNL1        0.1198
     18 H          64.1050   87.1598   16.4815 H       1  UNL1        0.1198
@<TRIPOS>BOND
     1    15    16    1
     2    16    13    1
     3    13    14    3
     4    14     1    1
     5     1     2   ar
     6     2     3   ar
     7     3     4   ar
     8     4     5   ar
     9     5     6   ar
    10     6     7    1
    11     7     8   ar
    12     8     9   ar
    13     9    10   ar
    14    10    11   ar
    15    11    12   ar
    16     6     1   ar
    17    12     7   ar
    18    15    17    1
    19    15    18    1
@<TRIPOS>MOLECULE
*****
 18 19 0 0 0
SMALL
GASTEIGER

@<TRIPOS>ATOM
      1 C          61.4463   88.1527   10.1154 C.ar    1  UNL1        0.0609
      2 C          60.6635   89.2300    9.4251 C.ar    1  UNL1        0.1071
      3 N          59.8120   88.8941    8.2368 N.ar    1  UNL1       -0.2417
      4 C          59.7433   87.4809    7.7387 C.ar    1  UNL1        0.0989
      5 C          60.5261   86.4036    8.4291 C.ar    1  UNL1        0.0214
      6 C          61.3775   86.7395    9.6174 C.ar    1  UNL1        0.0137
      7 C          62.1603   85.6620   10.3077 C.ar    1  UNL1        0.0391
      8 C          61.9891   85.4374   11.7809 C.ar    1  UNL1        0.1022
      9 N          62.7719   84.3600   12.4712 N.ar    1  UNL1       -0.2224
     10 C          63.7258   83.5073   11.6884 C.ar    1  UNL1        0.1989
     11 N          63.8970   83.7319   10.2152 N.ar    1  UNL1       -0.2224
     12 C          63.1143   84.8093    9.5249 C.ar    1  UNL1        0.1022
     13 C          63.1492   88.8244   12.4921 C.1     1  UNL1       -0.0689
     14 C          62.2977   88.4885   11.3038 C.1     1  UNL1       -0.0614
     15 N          63.3729   89.3110   15.0344 N.3     1  UNL1       -0.3102
     16 C          64.0007   89.1603   13.6805 C.3     1  UNL1        0.1432
     17 H          64.0934   89.5381   15.7198 H       1  UNL1        0.1198
     18 H          62.9171   88.4372   15.2970 H       1  UNL1        0.1198
@<TRIPOS>BOND
     1    15    16    1
     2    16    13    1
     3    13    14    3
     4    14     1    1
     5     1     2   ar
     6     2     3   ar
     7     3     4   ar
     8     4     5   ar
     9     5     6   ar
    10     6     7    1
    11     7     8   ar
    12     8     9   ar
    13     9    10   ar
    14    10    11   ar
    15    11    12   ar
    16     6     1   ar
    17    12     7   ar
    18    15    17    1
    19    15    18    1
