@<TRIPOS>MOLECULE
*****
 42 47 0 0 0
SMALL
GASTEIGER

@<TRIPOS>ATOM
      1 N          60.2862   88.8874   10.3291 N.am    1  UNL1       -0.2222
      2 C          59.9412   89.9767    9.3572 C.2     1  UNL1        0.3219
      3 O          59.4119   91.3357    9.7074 O.2     1  UNL1       -0.2512
      4 N          60.2183   89.4681    7.9734 N.am    1  UNL1       -0.1907
      5 C          60.7347   88.0646    8.0902 C.2     1  UNL1        0.2529
      6 O          61.1382   87.1760    6.9512 O.2     1  UNL1       -0.2724
      7 C          60.7767   87.7057    9.5461 C.3     1  UNL1        0.1391
      8 C          60.7631   87.4909   11.0305 C.3     1  UNL1        0.0449
      9 C          61.2159   86.1804   11.6029 C.3     1  UNL1        0.0746
     10 N          61.6824   85.0848   10.6907 N.3     1  UNL1       -0.2676
     11 C          61.6960   85.2996    9.2063 C.3     1  UNL1        0.0746
     12 C          61.2431   86.6100    8.6340 C.3     1  UNL1        0.0449
     13 C          61.2221   89.4454   14.1452 C.ar    1  UNL1        0.2293
     14 C          61.3457   89.3667   12.6524 C.ar    1  UNL1        0.0924
     15 C          60.1626   88.9661   11.8219 C.ar    1  UNL1        0.1453
     16 N          58.8558   88.6442   12.4843 N.ar    1  UNL1       -0.2084
     17 C          58.7321   88.7229   13.9770 C.ar    1  UNL1        0.2027
     18 N          59.9153   89.1235   14.8075 N.ar    1  UNL1       -0.1892
     19 C          63.5825   90.5150   14.3304 C.3     1  UNL1        0.2542
     20 O          62.4052   89.8460   14.9757 O.3     1  UNL1       -0.4560
     21 C          60.0149   90.2293    6.6972 C.ar    1  UNL1        0.0622
     22 C          58.6298   90.6046    6.2604 C.ar    1  UNL1        0.0154
     23 C          58.4264   91.3659    4.9840 C.ar    1  UNL1        0.0013
     24 C          59.6079   91.7519    4.1444 C.ar    1  UNL1        0.0001
     25 C          60.9931   91.3766    4.5812 C.ar    1  UNL1        0.0013
     26 C          61.1964   90.6153    5.8576 C.ar    1  UNL1        0.0154
     27 C          59.4045   92.5131    2.8681 C.ar    1  UNL1        0.0000
     28 C          60.2134   93.7460    2.5930 C.ar    1  UNL1        0.0007
     29 C          60.0100   94.5072    1.3166 C.ar    1  UNL1        0.0103
     30 C          58.9975   94.0356    0.3154 C.ar    1  UNL1        0.0684
     31 C          58.1886   92.8027    0.5904 C.ar    1  UNL1        0.0103
     32 C          58.3920   92.0415    1.8667 C.ar    1  UNL1        0.0007
     33 C          58.7940   94.7968   -0.9610 C.1     1  UNL1        0.1004
     34 N          58.5906   95.5581   -2.2373 N.1     1  UNL1       -0.1908
     35 C          62.1353   83.7743   11.2631 C.3     1  UNL1        0.1183
     36 C          62.8534   83.7390   12.5795 C.ar    1  UNL1        0.0712
     37 N          63.7124   84.8958   12.9966 N.ar    1  UNL1       -0.2471
     38 C          64.4305   84.8604   14.3131 C.ar    1  UNL1        0.0985
     39 C          64.2897   83.6682   15.2124 C.ar    1  UNL1        0.0203
     40 C          63.4307   82.5114   14.7954 C.ar    1  UNL1       -0.0015
     41 C          62.7126   82.5468   13.4790 C.ar    1  UNL1       -0.0069
     42 C          61.8536   81.3899   13.0619 C.3     1  UNL1        0.0323
@<TRIPOS>BOND
     1    19    20    1
     2    20    13    1
     3    13    14   ar
     4    14    15   ar
     5    15     1    1
     6     1     2   am
     7     2     3    2
     8     2     4   am
     9     4    21    1
    10    21    22   ar
    11    22    23   ar
    12    23    24   ar
    13    24    27    1
    14    27    28   ar
    15    28    29   ar
    16    29    30   ar
    17    30    33    1
    18    33    34    3
    19    30    31   ar
    20    31    32   ar
    21    24    25   ar
    22    25    26   ar
    23     4     5   am
    24     5     6    2
    25     5     7    1
    26     7     8    1
    27     8     9    1
    28     9    10    1
    29    10    35    1
    30    35    36    1
    31    36    37   ar
    32    37    38   ar
    33    38    39   ar
    34    39    40   ar
    35    40    41   ar
    36    41    42    1
    37    10    11    1
    38    11    12    1
    39    15    16   ar
    40    16    17   ar
    41    17    18   ar
    42    18    13   ar
    43     7     1    1
    44    41    36   ar
    45    26    21   ar
    46    12     7    1
    47    32    27   ar
@<TRIPOS>MOLECULE
*****
 42 47 0 0 0
SMALL
GASTEIGER

@<TRIPOS>ATOM
      1 N          60.1453   88.8971   10.0620 N.am    1  UNL1       -0.2222
      2 C          59.8067   89.9953    9.0979 C.2     1  UNL1        0.3219
      3 O          59.2056   91.3236    9.4502 O.2     1  UNL1       -0.2512
      4 N          60.1749   89.5318    7.7195 N.am    1  UNL1       -0.1907
      5 C          60.7410   88.1473    7.8318 C.2     1  UNL1        0.2529
      6 O          61.2381   87.3032    6.6959 O.2     1  UNL1       -0.2724
      7 C          60.7227   87.7550    9.2795 C.3     1  UNL1        0.1391
      8 C          60.6417   87.5037   10.7561 C.3     1  UNL1        0.0449
      9 C          61.1173   86.1985   11.3219 C.3     1  UNL1        0.0746
     10 N          61.6739   85.1446   10.4112 N.3     1  UNL1       -0.2676
     11 C          61.7550   85.3958    8.9346 C.3     1  UNL1        0.0746
     12 C          61.2794   86.7010    8.3688 C.3     1  UNL1        0.0449
     13 C          58.4190   88.5678   13.6202 C.ar    1  UNL1        0.2293
     14 C          58.6221   88.5304   12.1345 C.ar    1  UNL1        0.0924
     15 C          59.9421   88.9344   11.5477 C.ar    1  UNL1        0.1453
     16 N          61.0589   89.3758   12.4465 N.ar    1  UNL1       -0.2084
     17 C          60.8558   89.4133   13.9322 C.ar    1  UNL1        0.2027
     18 N          59.5358   89.0092   14.5191 N.ar    1  UNL1       -0.1892
     19 C          55.9689   87.7626   13.3060 C.3     1  UNL1        0.2542
     20 O          57.0990   88.1638   14.2071 O.3     1  UNL1       -0.4560
     21 C          60.0066   90.3154    6.4516 C.ar    1  UNL1        0.0622
     22 C          58.6393   90.7517    6.0155 C.ar    1  UNL1        0.0154
     23 C          58.4710   91.5352    4.7476 C.ar    1  UNL1        0.0013
     24 C          59.6699   91.8825    3.9157 C.ar    1  UNL1        0.0001
     25 C          61.0373   91.4462    4.3518 C.ar    1  UNL1        0.0013
     26 C          61.2055   90.6626    5.6198 C.ar    1  UNL1        0.0154
     27 C          59.5016   92.6661    2.6478 C.ar    1  UNL1        0.0000
     28 C          60.1270   94.0231    2.5161 C.ar    1  UNL1        0.0007
     29 C          59.9586   94.8067    1.2481 C.ar    1  UNL1        0.0103
     30 C          59.1648   94.2331    0.1119 C.ar    1  UNL1        0.0684
     31 C          58.5394   92.8761    0.2436 C.ar    1  UNL1        0.0103
     32 C          58.7078   92.0926    1.5115 C.ar    1  UNL1        0.0007
     33 C          58.9965   95.0167   -1.1561 C.1     1  UNL1        0.1004
     34 N          58.8281   95.8002   -2.4240 N.1     1  UNL1       -0.1908
     35 C          62.1495   83.8393   10.9771 C.3     1  UNL1        0.1183
     36 C          62.8499   83.8075   12.3031 C.ar    1  UNL1        0.0712
     37 N          63.4409   85.0644   12.8695 N.ar    1  UNL1       -0.2471
     38 C          64.1413   85.0326   14.1956 C.ar    1  UNL1        0.0985
     39 C          64.2507   83.7438   14.9553 C.ar    1  UNL1        0.0203
     40 C          63.6596   82.4869   14.3889 C.ar    1  UNL1       -0.0015
     41 C          62.9592   82.5187   13.0629 C.ar    1  UNL1       -0.0069
     42 C          62.3682   81.2618   12.4965 C.3     1  UNL1        0.0323
@<TRIPOS>BOND
     1    19    20    1
     2    20    13    1
     3    13    14   ar
     4    14    15   ar
     5    15     1    1
     6     1     2   am
     7     2     3    2
     8     2     4   am
     9     4    21    1
    10    21    22   ar
    11    22    23   ar
    12    23    24   ar
    13    24    27    1
    14    27    28   ar
    15    28    29   ar
    16    29    30   ar
    17    30    33    1
    18    33    34    3
    19    30    31   ar
    20    31    32   ar
    21    24    25   ar
    22    25    26   ar
    23     4     5   am
    24     5     6    2
    25     5     7    1
    26     7     8    1
    27     8     9    1
    28     9    10    1
    29    10    35    1
    30    35    36    1
    31    36    37   ar
    32    37    38   ar
    33    38    39   ar
    34    39    40   ar
    35    40    41   ar
    36    41    42    1
    37    10    11    1
    38    11    12    1
    39    15    16   ar
    40    16    17   ar
    41    17    18   ar
    42    18    13   ar
    43     7     1    1
    44    41    36   ar
    45    26    21   ar
    46    12     7    1
    47    32    27   ar
@<TRIPOS>MOLECULE
*****
 42 47 0 0 0
SMALL
GASTEIGER

@<TRIPOS>ATOM
      1 N          62.7910   89.1999   12.3392 N.am    1  UNL1       -0.2222
      2 C          62.3297   90.1118   11.2412 C.2     1  UNL1        0.3219
      3 O          62.3105   91.6109   11.2897 O.2     1  UNL1       -0.2512
      4 N          61.8908   89.2613   10.0861 N.am    1  UNL1       -0.1907
      5 C          62.0809   87.8239   10.4703 C.2     1  UNL1        0.2529
      6 O          61.7693   86.6334    9.6126 O.2     1  UNL1       -0.2724
      7 C          62.6373   87.7859   11.8628 C.3     1  UNL1        0.1391
      8 C          63.1886   87.9048   13.2527 C.3     1  UNL1        0.0449
      9 C          63.5311   86.6697   14.0319 C.3     1  UNL1        0.0746
     10 N          63.3222   85.3157   13.4212 N.3     1  UNL1       -0.2676
     11 C          62.7709   85.1967   12.0313 C.3     1  UNL1        0.0746
     12 C          62.4284   86.4318   11.2521 C.3     1  UNL1        0.0449
     13 C          65.1838   90.7072   15.1236 C.ar    1  UNL1        0.2293
     14 C          64.6605   90.2800   13.7843 C.ar    1  UNL1        0.0924
     15 C          63.3143   89.6270   13.6785 C.ar    1  UNL1        0.1453
     16 N          62.4913   89.4012   14.9121 N.ar    1  UNL1       -0.2084
     17 C          63.0144   89.8283   16.2514 C.ar    1  UNL1        0.2027
     18 N          64.3608   90.4813   16.3571 N.ar    1  UNL1       -0.1892
     19 C          66.6563   92.7227   15.8438 C.3     1  UNL1        0.2542
     20 O          66.5300   91.3602   15.2294 O.3     1  UNL1       -0.4560
     21 C          61.3557   89.7606    8.7768 C.ar    1  UNL1        0.0622
     22 C          60.0543   89.2341    8.2486 C.ar    1  UNL1        0.0154
     23 C          59.5193   89.7334    6.9392 C.ar    1  UNL1        0.0013
     24 C          60.2856   90.7593    6.1581 C.ar    1  UNL1        0.0001
     25 C          61.5871   91.2859    6.6863 C.ar    1  UNL1        0.0013
     26 C          62.1221   90.7865    7.9957 C.ar    1  UNL1        0.0154
     27 C          59.7506   91.2587    4.8487 C.ar    1  UNL1        0.0000
     28 C          58.2698   91.3741    4.6386 C.ar    1  UNL1        0.0007
     29 C          57.7348   91.8734    3.3292 C.ar    1  UNL1        0.0103
     30 C          58.6806   92.2573    2.2301 C.ar    1  UNL1        0.0684
     31 C          60.1613   92.1420    2.4402 C.ar    1  UNL1        0.0103
     32 C          60.6963   91.6427    3.7495 C.ar    1  UNL1        0.0007
     33 C          58.1455   92.7567    0.9207 C.1     1  UNL1        0.1004
     34 N          57.6104   93.2560   -0.3886 N.1     1  UNL1       -0.1908
     35 C          63.6648   84.0806   14.2005 C.3     1  UNL1        0.1183
     36 C          63.0281   82.7695   13.8460 C.ar    1  UNL1        0.0712
     37 N          61.8539   82.2686   14.6335 N.ar    1  UNL1       -0.2471
     38 C          61.2173   80.9574   14.2790 C.ar    1  UNL1        0.0985
     39 C          61.7549   80.1472   13.1368 C.ar    1  UNL1        0.0203
     40 C          62.9292   80.6481   12.3493 C.ar    1  UNL1       -0.0015
     41 C          63.5658   81.9592   12.7038 C.ar    1  UNL1       -0.0069
     42 C          64.7400   82.4601   11.9162 C.3     1  UNL1        0.0323
@<TRIPOS>BOND
     1    19    20    1
     2    20    13    1
     3    13    14   ar
     4    14    15   ar
     5    15     1    1
     6     1     2   am
     7     2     3    2
     8     2     4   am
     9     4    21    1
    10    21    22   ar
    11    22    23   ar
    12    23    24   ar
    13    24    27    1
    14    27    28   ar
    15    28    29   ar
    16    29    30   ar
    17    30    33    1
    18    33    34    3
    19    30    31   ar
    20    31    32   ar
    21    24    25   ar
    22    25    26   ar
    23     4     5   am
    24     5     6    2
    25     5     7    1
    26     7     8    1
    27     8     9    1
    28     9    10    1
    29    10    35    1
    30    35    36    1
    31    36    37   ar
    32    37    38   ar
    33    38    39   ar
    34    39    40   ar
    35    40    41   ar
    36    41    42    1
    37    10    11    1
    38    11    12    1
    39    15    16   ar
    40    16    17   ar
    41    17    18   ar
    42    18    13   ar
    43     7     1    1
    44    41    36   ar
    45    26    21   ar
    46    12     7    1
    47    32    27   ar
