@<TRIPOS>MOLECULE
*****
 43 47 0 0 0
SMALL
GASTEIGER

@<TRIPOS>ATOM
      1 N          65.0644   90.0746   14.3220 N.am    1  UNL1       -0.2705
      2 C          64.0148   89.9735   15.3888 C.2     1  UNL1        0.2846
      3 O          63.3892   91.2178   15.9457 O.2     1  UNL1       -0.2665
      4 H          65.4750   89.2579   13.9564 H       1  UNL1        0.1555
      5 C          66.7186   92.0776   14.3636 C.ar    1  UNL1        0.2459
      6 N          67.1425   93.4231   13.8537 N.ar    1  UNL1       -0.1777
      7 C          66.3362   94.1111   12.7923 C.ar    1  UNL1        0.2220
      8 N          65.1060   93.4536   12.2408 N.ar    1  UNL1       -0.1777
      9 C          64.6821   92.1081   12.7507 C.ar    1  UNL1        0.2459
     10 C          65.4884   91.4201   13.8121 C.ar    1  UNL1        0.1585
     11 C          68.4620   92.1826   16.2870 C.3     1  UNL1        0.2543
     12 O          67.5249   91.3896   15.4250 O.3     1  UNL1       -0.4551
     13 N          66.7602   95.4565   12.2825 N.pl3   1  UNL1       -0.3028
     14 H          67.6653   95.7928   12.4744 H       1  UNL1        0.1496
     15 C          65.8049   96.2896   11.4803 C.3     1  UNL1        0.0910
     16 C          66.1852   96.7515   10.1047 C.3     1  UNL1        0.0386
     17 C          66.2871   95.7612    8.9826 C.3     1  UNL1        0.0740
     18 N          66.9802   94.4490    9.2010 N.3     1  UNL1       -0.2684
     19 C          68.4597   94.3366    8.9816 C.3     1  UNL1        0.1046
     20 C          69.1527   93.0243    9.2000 C.3     1  UNL1        0.1595
     21 O          68.3661   91.8245    9.6377 O.3     1  UNL1       -0.3508
     22 C          66.8865   91.9369    9.8570 C.3     1  UNL1        0.1595
     23 C          66.1936   93.2491    9.6386 C.3     1  UNL1        0.1046
     24 O          63.4518   91.4505   12.1991 O.3     1  UNL1       -0.4551
     25 C          63.3671   91.1242   10.7375 C.3     1  UNL1        0.2543
     26 C          63.5909   88.6280   15.8986 C.ar    1  UNL1        0.2021
     27 C          63.0500   88.3337   17.2664 C.ar    1  UNL1        0.0489
     28 C          62.7582   86.8644   17.3433 C.ar    1  UNL1        0.0816
     29 C          63.1187   86.2505   16.0229 C.ar    1  UNL1        0.3014
     30 O          63.6333   87.3406   15.1301 O.2     1  UNL1       -0.4188
     31 O          62.9877   84.8013   15.6593 O.3     1  UNL1       -0.4238
     32 C          63.2648   84.3522   14.2551 C.ar    1  UNL1        0.1443
     33 C          62.7420   85.1482   13.0962 C.ar    1  UNL1        0.0327
     34 C          63.0190   84.6993   11.6921 C.ar    1  UNL1       -0.0237
     35 C          63.8189   83.4543   11.4468 C.ar    1  UNL1       -0.0263
     36 C          64.3417   82.6582   12.6056 C.ar    1  UNL1       -0.0058
     37 C          64.0646   83.1073   14.0098 C.ar    1  UNL1        0.0125
     38 C          64.5875   82.3112   15.1688 C.3     1  UNL1        0.0342
     39 C          63.9312   83.2601    9.9637 C.3     1  UNL1        0.0264
     40 C          63.2007   84.3851    9.2923 C.3     1  UNL1        0.0087
     41 C          62.6369   85.2746   10.3605 C.3     1  UNL1        0.0190
     42 C          62.1141   86.0706    9.2017 C.3     1  UNL1        0.0044
     43 C          61.9639   86.3304   11.1865 C.3     1  UNL1        0.0044
@<TRIPOS>BOND
     1    11    12    1
     2    12     5    1
     3     5     6   ar
     4     6     7   ar
     5     7    13    1
     6    13    15    1
     7    15    16    1
     8    16    17    1
     9    17    18    1
    10    18    19    1
    11    19    20    1
    12    20    21    1
    13    21    22    1
    14    22    23    1
    15     7     8   ar
    16     8     9   ar
    17     9    24    1
    18    24    25    1
    19     9    10   ar
    20    10     1    1
    21     1     2   am
    22     2     3    2
    23     2    26    1
    24    26    27   ar
    25    27    28   ar
    26    28    29   ar
    27    29    31    1
    28    31    32    1
    29    32    33   ar
    30    33    34   ar
    31    34    35   ar
    32    35    36   ar
    33    36    37   ar
    34    37    38    1
    35    35    39    1
    36    39    40    1
    37    40    41    1
    38    41    42    1
    39    41    43    1
    40    29    30   ar
    41    10     5   ar
    42    30    26   ar
    43    23    18    1
    44    37    32   ar
    45    41    34    1
    46    13    14    1
    47     1     4    1
@<TRIPOS>MOLECULE
*****
 43 47 0 0 0
SMALL
GASTEIGER

@<TRIPOS>ATOM
      1 N          60.5492   89.3248    8.0941 N.am    1  UNL1       -0.2705
      2 C          59.3137   89.1847    7.2551 C.2     1  UNL1        0.2846
      3 O          58.4082   88.0040    7.4447 O.2     1  UNL1       -0.2665
      4 H          61.1435   90.0998    7.9697 H       1  UNL1        0.1555
      5 C          61.0093   88.6710   10.5662 C.ar    1  UNL1        0.2459
      6 N          61.3394   87.6303   11.5948 N.ar    1  UNL1       -0.1777
      7 C          61.5392   86.2027   11.1800 C.ar    1  UNL1        0.2220
      8 N          61.4091   85.8158    9.7367 N.ar    1  UNL1       -0.1777
      9 C          61.0791   86.8565    8.7081 C.ar    1  UNL1        0.2459
     10 C          60.8792   88.2841    9.1228 C.ar    1  UNL1        0.1585
     11 C          59.4477   90.5775   11.3889 C.3     1  UNL1        0.2543
     12 O          60.8094   90.0986   10.9810 O.3     1  UNL1       -0.4551
     13 N          61.8692   85.1621   12.2086 N.pl3   1  UNL1       -0.3028
     14 H          61.5765   85.2814   13.1410 H       1  UNL1        0.1496
     15 C          62.6453   83.9397   11.8167 C.3     1  UNL1        0.0910
     16 C          62.7348   82.7746   12.7572 C.3     1  UNL1        0.0386
     17 C          63.5019   82.9034   14.0399 C.3     1  UNL1        0.0740
     18 N          63.4650   84.1902   14.8098 N.3     1  UNL1       -0.2684
     19 C          62.4531   84.3830   15.9001 C.3     1  UNL1        0.1046
     20 C          62.4162   85.6698   16.6701 C.3     1  UNL1        0.1595
     21 O          63.3912   86.7637   16.3497 O.3     1  UNL1       -0.3508
     22 C          64.4032   86.5708   15.2594 C.3     1  UNL1        0.1595
     23 C          64.4400   85.2841   14.4895 C.3     1  UNL1        0.1046
     24 O          60.9489   86.4696    7.2646 O.3     1  UNL1       -0.4551
     25 C          61.3496   85.0949    6.8176 C.3     1  UNL1        0.2543
     26 C          58.9837   90.2253    6.2265 C.ar    1  UNL1        0.2021
     27 C          57.6653   90.3899    5.5302 C.ar    1  UNL1        0.0489
     28 C          57.7810   91.5505    4.5869 C.ar    1  UNL1        0.0816
     29 C          59.1709   92.1032    4.7002 C.ar    1  UNL1        0.3014
     30 O          59.9142   91.2841    5.7136 O.2     1  UNL1       -0.4188
     31 O          59.7209   93.2699    3.9347 O.3     1  UNL1       -0.4238
     32 C          60.1923   93.0854    2.5226 C.ar    1  UNL1        0.1443
     33 C          59.3585   93.5890    1.3819 C.ar    1  UNL1        0.0327
     34 C          59.8298   93.4046   -0.0302 C.ar    1  UNL1       -0.0237
     35 C          61.1348   92.7166   -0.3015 C.ar    1  UNL1       -0.0263
     36 C          61.9686   92.2131    0.8393 C.ar    1  UNL1       -0.0058
     37 C          61.4972   92.3975    2.2513 C.ar    1  UNL1        0.0125
     38 C          62.3310   91.8939    3.3922 C.3     1  UNL1        0.0342
     39 C          61.3391   92.6793   -1.7870 C.3     1  UNL1        0.0264
     40 C          60.1603   93.3442   -2.4338 C.3     1  UNL1        0.0087
     41 C          59.2275   93.7925   -1.3480 C.3     1  UNL1        0.0190
     42 C          58.3938   94.2960   -2.4888 C.3     1  UNL1        0.0044
     43 C          58.1204   94.3460   -0.5007 C.3     1  UNL1        0.0044
@<TRIPOS>BOND
     1    11    12    1
     2    12     5    1
     3     5     6   ar
     4     6     7   ar
     5     7    13    1
     6    13    15    1
     7    15    16    1
     8    16    17    1
     9    17    18    1
    10    18    19    1
    11    19    20    1
    12    20    21    1
    13    21    22    1
    14    22    23    1
    15     7     8   ar
    16     8     9   ar
    17     9    24    1
    18    24    25    1
    19     9    10   ar
    20    10     1    1
    21     1     2   am
    22     2     3    2
    23     2    26    1
    24    26    27   ar
    25    27    28   ar
    26    28    29   ar
    27    29    31    1
    28    31    32    1
    29    32    33   ar
    30    33    34   ar
    31    34    35   ar
    32    35    36   ar
    33    36    37   ar
    34    37    38    1
    35    35    39    1
    36    39    40    1
    37    40    41    1
    38    41    42    1
    39    41    43    1
    40    29    30   ar
    41    10     5   ar
    42    30    26   ar
    43    23    18    1
    44    37    32   ar
    45    41    34    1
    46    13    14    1
    47     1     4    1
@<TRIPOS>MOLECULE
*****
 43 47 0 0 0
SMALL
GASTEIGER

@<TRIPOS>ATOM
      1 N          60.5276   89.3321    8.1151 N.am    1  UNL1       -0.2705
      2 C          59.3038   89.1797    7.2612 C.2     1  UNL1        0.2846
      3 O          58.4101   87.9880    7.4373 O.2     1  UNL1       -0.2665
      4 H          61.1142   90.1142    7.9995 H       1  UNL1        0.1555
      5 C          61.0952   86.8717    8.7274 C.ar    1  UNL1        0.2459
      6 N          61.4252   85.8324    9.7574 N.ar    1  UNL1       -0.1777
      7 C          61.5177   86.2140   11.2051 C.ar    1  UNL1        0.2220
      8 N          61.2802   87.6350   11.6228 N.ar    1  UNL1       -0.1777
      9 C          60.9501   88.6743   10.5928 C.ar    1  UNL1        0.2459
     10 C          60.8577   88.2927    9.1451 C.ar    1  UNL1        0.1585
     11 C          61.2966   85.0819    6.8550 C.3     1  UNL1        0.2543
     12 O          61.0027   86.4901    7.2797 O.3     1  UNL1       -0.4551
     13 N          61.8477   85.1747   12.2350 N.pl3   1  UNL1       -0.3028
     14 H          61.5485   85.2914   13.1656 H       1  UNL1        0.1496
     15 C          62.6338   83.9575   11.8470 C.3     1  UNL1        0.0910
     16 C          62.6980   82.7794   12.7734 C.3     1  UNL1        0.0386
     17 C          63.4358   82.8880   14.0748 C.3     1  UNL1        0.0740
     18 N          63.4443   84.1863   14.8261 N.3     1  UNL1       -0.2684
     19 C          62.4515   84.4234   15.9251 C.3     1  UNL1        0.1046
     20 C          62.4600   85.7217   16.6764 C.3     1  UNL1        0.1595
     21 O          63.4614   86.7829   16.3284 O.3     1  UNL1       -0.3508
     22 C          64.4542   86.5458   15.2293 C.3     1  UNL1        0.1595
     23 C          64.4456   85.2476   14.4781 C.3     1  UNL1        0.1046
     24 O          60.7126   90.0953   11.0105 O.3     1  UNL1       -0.4551
     25 C          59.3766   90.5028   11.5574 C.3     1  UNL1        0.2543
     26 C          58.9738   90.2190    6.2313 C.ar    1  UNL1        0.2021
     27 C          57.6606   90.3725    5.5228 C.ar    1  UNL1        0.0489
     28 C          57.7743   91.5357    4.5827 C.ar    1  UNL1        0.0816
     29 C          59.1578   92.1013    4.7101 C.ar    1  UNL1        0.3014
     30 O          59.8991   91.2875    5.7291 O.2     1  UNL1       -0.4188
     31 O          59.7040   93.2745    3.9518 O.3     1  UNL1       -0.4238
     32 C          60.1925   93.0966    2.5447 C.ar    1  UNL1        0.1443
     33 C          59.3668   93.5945    1.3957 C.ar    1  UNL1        0.0327
     34 C          59.8553   93.4166   -0.0114 C.ar    1  UNL1       -0.0237
     35 C          61.1693   92.7408   -0.2693 C.ar    1  UNL1       -0.0263
     36 C          61.9950   92.2429    0.8797 C.ar    1  UNL1       -0.0058
     37 C          61.5065   92.4208    2.2868 C.ar    1  UNL1        0.0125
     38 C          62.3322   91.9229    3.4360 C.3     1  UNL1        0.0342
     39 C          61.3903   92.7077   -1.7526 C.3     1  UNL1        0.0264
     40 C          60.2127   93.3630   -2.4113 C.3     1  UNL1        0.0087
     41 C          59.2640   93.8011   -1.3352 C.3     1  UNL1        0.0190
     42 C          58.4384   94.2990   -2.4843 C.3     1  UNL1        0.0044
     43 C          58.1428   94.3434   -0.4993 C.3     1  UNL1        0.0044
@<TRIPOS>BOND
     1    11    12    1
     2    12     5    1
     3     5     6   ar
     4     6     7   ar
     5     7    13    1
     6    13    15    1
     7    15    16    1
     8    16    17    1
     9    17    18    1
    10    18    19    1
    11    19    20    1
    12    20    21    1
    13    21    22    1
    14    22    23    1
    15     7     8   ar
    16     8     9   ar
    17     9    24    1
    18    24    25    1
    19     9    10   ar
    20    10     1    1
    21     1     2   am
    22     2     3    2
    23     2    26    1
    24    26    27   ar
    25    27    28   ar
    26    28    29   ar
    27    29    31    1
    28    31    32    1
    29    32    33   ar
    30    33    34   ar
    31    34    35   ar
    32    35    36   ar
    33    36    37   ar
    34    37    38    1
    35    35    39    1
    36    39    40    1
    37    40    41    1
    38    41    42    1
    39    41    43    1
    40    29    30   ar
    41    10     5   ar
    42    30    26   ar
    43    23    18    1
    44    37    32   ar
    45    41    34    1
    46    13    14    1
    47     1     4    1
@<TRIPOS>MOLECULE
*****
 43 47 0 0 0
SMALL
GASTEIGER

@<TRIPOS>ATOM
      1 N          60.5069   89.5215    8.0971 N.am    1  UNL1       -0.2705
      2 C          59.3048   89.3285    7.2209 C.2     1  UNL1        0.2846
      3 O          58.4305   88.1231    7.4020 O.2     1  UNL1       -0.2665
      4 H          61.0807   90.3126    7.9783 H       1  UNL1        0.1555
      5 C          60.8731   88.9173   10.5973 C.ar    1  UNL1        0.2459
      6 N          61.2009   87.9049   11.6545 N.ar    1  UNL1       -0.1777
      7 C          61.4903   86.4845   11.2689 C.ar    1  UNL1        0.2220
      8 N          61.4519   86.0764    9.8260 N.ar    1  UNL1       -0.1777
      9 C          61.1241   87.0888    8.7687 C.ar    1  UNL1        0.2459
     10 C          60.8347   88.5092    9.1544 C.ar    1  UNL1        0.1585
     11 C          59.2504   90.6994   11.5673 C.3     1  UNL1        0.2543
     12 O          60.5837   90.3377   10.9830 O.3     1  UNL1       -0.4551
     13 N          61.8180   85.4723   12.3261 N.pl3   1  UNL1       -0.3028
     14 H          61.0953   84.9719   12.7695 H       1  UNL1        0.1496
     15 C          63.2470   85.2224   12.7078 C.3     1  UNL1        0.0910
     16 C          63.5974   84.8957   14.1293 C.3     1  UNL1        0.0386
     17 C          64.0559   83.5138   14.4901 C.3     1  UNL1        0.0740
     18 N          63.2256   82.3244   14.1081 N.3     1  UNL1       -0.2684
     19 C          63.8102   81.2487   13.2416 C.3     1  UNL1        0.1046
     20 C          62.9798   80.0594   12.8595 C.3     1  UNL1        0.1595
     21 O          61.5648   79.9458   13.3442 O.3     1  UNL1       -0.3508
     22 C          60.9802   81.0215   14.2108 C.3     1  UNL1        0.1595
     23 C          61.8106   82.2108   14.5927 C.3     1  UNL1        0.1046
     24 O          61.0856   86.6807    7.3258 O.3     1  UNL1       -0.4551
     25 C          61.0196   85.2278    6.9588 C.3     1  UNL1        0.2543
     26 C          58.9770   90.3407    6.1637 C.ar    1  UNL1        0.2021
     27 C          57.6726   90.4618    5.4330 C.ar    1  UNL1        0.0489
     28 C          57.7856   91.6056    4.4692 C.ar    1  UNL1        0.0816
     29 C          59.1598   92.1916    4.6042 C.ar    1  UNL1        0.3014
     30 O          59.8961   91.4098    5.6515 O.2     1  UNL1       -0.4188
     31 O          59.7024   93.3549    3.8283 O.3     1  UNL1       -0.4238
     32 C          60.1568   93.1650    2.4114 C.ar    1  UNL1        0.1443
     33 C          59.3129   93.6704    1.2791 C.ar    1  UNL1        0.0327
     34 C          59.7672   93.4806   -0.1378 C.ar    1  UNL1       -0.0237
     35 C          61.0655   92.7853   -0.4223 C.ar    1  UNL1       -0.0263
     36 C          61.9095   92.2798    0.7100 C.ar    1  UNL1       -0.0058
     37 C          61.4551   92.4697    2.1269 C.ar    1  UNL1        0.0125
     38 C          62.2991   91.9643    3.2594 C.3     1  UNL1        0.0342
     39 C          61.2529   92.7437   -1.9100 C.3     1  UNL1        0.0264
     40 C          60.0703   93.4133   -2.5449 C.3     1  UNL1        0.0087
     41 C          59.1521   93.8687   -1.4496 C.3     1  UNL1        0.0190
     42 C          58.3081   94.3741   -2.5820 C.3     1  UNL1        0.0044
     43 C          58.0575   94.4298   -0.5911 C.3     1  UNL1        0.0044
@<TRIPOS>BOND
     1    11    12    1
     2    12     5    1
     3     5     6   ar
     4     6     7   ar
     5     7    13    1
     6    13    15    1
     7    15    16    1
     8    16    17    1
     9    17    18    1
    10    18    19    1
    11    19    20    1
    12    20    21    1
    13    21    22    1
    14    22    23    1
    15     7     8   ar
    16     8     9   ar
    17     9    24    1
    18    24    25    1
    19     9    10   ar
    20    10     1    1
    21     1     2   am
    22     2     3    2
    23     2    26    1
    24    26    27   ar
    25    27    28   ar
    26    28    29   ar
    27    29    31    1
    28    31    32    1
    29    32    33   ar
    30    33    34   ar
    31    34    35   ar
    32    35    36   ar
    33    36    37   ar
    34    37    38    1
    35    35    39    1
    36    39    40    1
    37    40    41    1
    38    41    42    1
    39    41    43    1
    40    29    30   ar
    41    10     5   ar
    42    30    26   ar
    43    23    18    1
    44    37    32   ar
    45    41    34    1
    46    13    14    1
    47     1     4    1
@<TRIPOS>MOLECULE
*****
 43 47 0 0 0
SMALL
GASTEIGER

@<TRIPOS>ATOM
      1 N          60.6440   89.3352    8.1051 N.am    1  UNL1       -0.2705
      2 C          59.3966   89.1714    7.2882 C.2     1  UNL1        0.2846
      3 O          58.5124   87.9784    7.5003 O.2     1  UNL1       -0.2665
      4 H          61.2243   90.1182    7.9660 H       1  UNL1        0.1555
      5 C          61.1563   86.8674    8.7360 C.ar    1  UNL1        0.2459
      6 N          61.5194   85.8382    9.7650 N.ar    1  UNL1       -0.1777
      7 C          61.7334   86.2474   11.1921 C.ar    1  UNL1        0.2220
      8 N          61.5842   87.6859   11.5903 N.ar    1  UNL1       -0.1777
      9 C          61.2211   88.7151   10.5613 C.ar    1  UNL1        0.2459
     10 C          61.0071   88.3058    9.1342 C.ar    1  UNL1        0.1585
     11 C          60.9807   85.0071    6.9309 C.3     1  UNL1        0.2543
     12 O          60.9423   86.4581    7.3088 O.3     1  UNL1       -0.4551
     13 N          62.0965   85.2182   12.2210 N.pl3   1  UNL1       -0.3028
     14 H          61.5990   84.3698   12.2655 H       1  UNL1        0.1496
     15 C          63.2176   85.4816   13.1822 C.3     1  UNL1        0.0910
     16 C          64.2642   84.4334   13.4192 C.3     1  UNL1        0.0386
     17 C          64.0324   83.3597   14.4407 C.3     1  UNL1        0.0740
     18 N          63.1650   82.1822   14.1075 N.3     1  UNL1       -0.2684
     19 C          63.7322   81.0271   13.3368 C.3     1  UNL1        0.1046
     20 C          62.8648   79.8496   13.0036 C.3     1  UNL1        0.1595
     21 O          61.4302   79.8272   13.4411 O.3     1  UNL1       -0.3508
     22 C          60.8630   80.9823   14.2119 C.3     1  UNL1        0.1595
     23 C          61.7305   82.1597   14.5451 C.3     1  UNL1        0.1046
     24 O          61.0719   90.1536   10.9595 O.3     1  UNL1       -0.4551
     25 C          62.2899   90.9938   11.2057 C.3     1  UNL1        0.2543
     26 C          59.0335   90.2006    6.2593 C.ar    1  UNL1        0.2021
     27 C          57.7058   90.3319    5.5738 C.ar    1  UNL1        0.0489
     28 C          57.7861   91.4917    4.6260 C.ar    1  UNL1        0.0816
     29 C          59.1635   92.0774    4.7258 C.ar    1  UNL1        0.3014
     30 O          59.9344   91.2794    5.7353 O.2     1  UNL1       -0.4188
     31 O          59.6794   93.2542    3.9520 O.3     1  UNL1       -0.4238
     32 C          60.1564   93.0737    2.5414 C.ar    1  UNL1        0.1443
     33 C          59.3159   93.5589    1.3976 C.ar    1  UNL1        0.0327
     34 C          59.7929   93.3784   -0.0130 C.ar    1  UNL1       -0.0237
     35 C          61.1103   92.7126   -0.2799 C.ar    1  UNL1       -0.0263
     36 C          61.9507   92.2273    0.8638 C.ar    1  UNL1       -0.0058
     37 C          61.4737   92.4079    2.2745 C.ar    1  UNL1        0.0125
     38 C          62.3142   91.9226    3.4183 C.3     1  UNL1        0.0342
     39 C          61.3178   92.6742   -1.7650 C.3     1  UNL1        0.0264
     40 C          60.1287   93.3162   -2.4159 C.3     1  UNL1        0.0087
     41 C          59.1862   93.7515   -1.3332 C.3     1  UNL1        0.0190
     42 C          58.3458   94.2367   -2.4769 C.3     1  UNL1        0.0044
     43 C          58.0681   94.2882   -0.4895 C.3     1  UNL1        0.0044
@<TRIPOS>BOND
     1    11    12    1
     2    12     5    1
     3     5     6   ar
     4     6     7   ar
     5     7    13    1
     6    13    15    1
     7    15    16    1
     8    16    17    1
     9    17    18    1
    10    18    19    1
    11    19    20    1
    12    20    21    1
    13    21    22    1
    14    22    23    1
    15     7     8   ar
    16     8     9   ar
    17     9    24    1
    18    24    25    1
    19     9    10   ar
    20    10     1    1
    21     1     2   am
    22     2     3    2
    23     2    26    1
    24    26    27   ar
    25    27    28   ar
    26    28    29   ar
    27    29    31    1
    28    31    32    1
    29    32    33   ar
    30    33    34   ar
    31    34    35   ar
    32    35    36   ar
    33    36    37   ar
    34    37    38    1
    35    35    39    1
    36    39    40    1
    37    40    41    1
    38    41    42    1
    39    41    43    1
    40    29    30   ar
    41    10     5   ar
    42    30    26   ar
    43    23    18    1
    44    37    32   ar
    45    41    34    1
    46    13    14    1
    47     1     4    1
@<TRIPOS>MOLECULE
*****
 43 47 0 0 0
SMALL
GASTEIGER

@<TRIPOS>ATOM
      1 N          64.2872   88.1394   14.8195 N.am    1  UNL1       -0.2705
      2 C          63.4900   89.3971   15.0003 C.2     1  UNL1        0.2846
      3 O          61.9944   89.3592   14.8918 O.2     1  UNL1       -0.2665
      4 H          65.2688   88.1642   14.8907 H       1  UNL1        0.1555
      5 C          63.1346   86.5319   13.1348 C.ar    1  UNL1        0.2459
      6 N          62.4361   85.2364   12.8455 N.ar    1  UNL1       -0.1777
      7 C          62.1919   84.2527   13.9512 C.ar    1  UNL1        0.2220
      8 N          62.6460   84.5645   15.3464 N.ar    1  UNL1       -0.1777
      9 C          63.3444   85.8601   15.6358 C.ar    1  UNL1        0.2459
     10 C          63.5887   86.8438   14.5300 C.ar    1  UNL1        0.1585
     11 C          62.2251   88.2396   11.4009 C.3     1  UNL1        0.2543
     12 O          63.3788   87.5156   12.0291 O.3     1  UNL1       -0.4551
     13 N          61.4935   82.9572   13.6618 N.pl3   1  UNL1       -0.3028
     14 H          60.8959   82.8834   12.8828 H       1  UNL1        0.1496
     15 C          61.7055   81.7741   14.5591 C.3     1  UNL1        0.0910
     16 C          61.7418   80.3906   13.9803 C.3     1  UNL1        0.0386
     17 C          62.6481   80.0846   12.8249 C.3     1  UNL1        0.0740
     18 N          63.4011   81.1917   12.1486 N.3     1  UNL1       -0.2684
     19 C          63.1029   81.5379   10.7200 C.3     1  UNL1        0.1046
     20 C          63.8560   82.6450   10.0437 C.3     1  UNL1        0.1595
     21 O          64.9071   83.4058   10.7962 O.3     1  UNL1       -0.3508
     22 C          65.2053   83.0595   12.2249 C.3     1  UNL1        0.1595
     23 C          64.4523   81.9525   12.9011 C.3     1  UNL1        0.1046
     24 O          63.7986   86.1720   17.0310 O.3     1  UNL1       -0.4551
     25 C          62.8120   86.6627   18.0487 C.3     1  UNL1        0.2543
     26 C          64.1884   90.6925   15.2898 C.ar    1  UNL1        0.2021
     27 C          64.2508   91.3826   16.6202 C.ar    1  UNL1        0.0489
     28 C          65.0480   92.6420   16.4523 C.ar    1  UNL1        0.0816
     29 C          65.4784   92.7304   15.0180 C.ar    1  UNL1        0.3014
     30 O          64.9471   91.5255   14.2996 O.2     1  UNL1       -0.4188
     31 O          66.2964   93.8304   14.4091 O.3     1  UNL1       -0.4238
     32 C          66.6614   93.7769   12.9551 C.ar    1  UNL1        0.1443
     33 C          66.2213   94.8731   12.0307 C.ar    1  UNL1        0.0327
     34 C          66.5862   94.8198   10.5767 C.ar    1  UNL1       -0.0237
     35 C          67.3913   93.6702   10.0473 C.ar    1  UNL1       -0.0263
     36 C          67.8315   92.5740   10.9717 C.ar    1  UNL1       -0.0058
     37 C          67.4664   92.6274   12.4257 C.ar    1  UNL1        0.0125
     38 C          67.9066   91.5312   13.3502 C.3     1  UNL1        0.0342
     39 C          67.5989   93.8875    8.5777 C.3     1  UNL1        0.0264
     40 C          66.9220   95.1714    8.1989 C.3     1  UNL1        0.0087
     41 C          66.2962   95.7476    9.4344 C.3     1  UNL1        0.0190
     42 C          65.8561   96.8438    8.5099 C.3     1  UNL1        0.0044
     43 C          65.5783   96.5529   10.4766 C.3     1  UNL1        0.0044
@<TRIPOS>BOND
     1    11    12    1
     2    12     5    1
     3     5     6   ar
     4     6     7   ar
     5     7    13    1
     6    13    15    1
     7    15    16    1
     8    16    17    1
     9    17    18    1
    10    18    19    1
    11    19    20    1
    12    20    21    1
    13    21    22    1
    14    22    23    1
    15     7     8   ar
    16     8     9   ar
    17     9    24    1
    18    24    25    1
    19     9    10   ar
    20    10     1    1
    21     1     2   am
    22     2     3    2
    23     2    26    1
    24    26    27   ar
    25    27    28   ar
    26    28    29   ar
    27    29    31    1
    28    31    32    1
    29    32    33   ar
    30    33    34   ar
    31    34    35   ar
    32    35    36   ar
    33    36    37   ar
    34    37    38    1
    35    35    39    1
    36    39    40    1
    37    40    41    1
    38    41    42    1
    39    41    43    1
    40    29    30   ar
    41    10     5   ar
    42    30    26   ar
    43    23    18    1
    44    37    32   ar
    45    41    34    1
    46    13    14    1
    47     1     4    1
@<TRIPOS>MOLECULE
*****
 43 47 0 0 0
SMALL
GASTEIGER

@<TRIPOS>ATOM
      1 N          64.2871   88.1213   14.8155 N.am    1  UNL1       -0.2705
      2 C          63.4946   89.3833   14.9866 C.2     1  UNL1        0.2846
      3 O          61.9994   89.3516   14.8706 O.2     1  UNL1       -0.2665
      4 H          65.2684   88.1421   14.8916 H       1  UNL1        0.1555
      5 C          63.3385   85.8457   15.6354 C.ar    1  UNL1        0.2459
      6 N          62.6358   84.5520   15.3482 N.ar    1  UNL1       -0.1777
      7 C          62.1789   84.2400   13.9539 C.ar    1  UNL1        0.2220
      8 N          62.4248   85.2218   12.8468 N.ar    1  UNL1       -0.1777
      9 C          63.1275   86.5155   13.1340 C.ar    1  UNL1        0.2459
     10 C          63.5843   86.8275   14.5283 C.ar    1  UNL1        0.1585
     11 C          62.8136   86.6621   18.0454 C.3     1  UNL1        0.2543
     12 O          63.7953   86.1576   17.0297 O.3     1  UNL1       -0.4551
     13 N          61.4763   82.9464   13.6668 N.pl3   1  UNL1       -0.3028
     14 H          60.8725   82.8754   12.8924 H       1  UNL1        0.1496
     15 C          61.6935   81.7607   14.5595 C.3     1  UNL1        0.0910
     16 C          61.7244   80.3788   13.9768 C.3     1  UNL1        0.0386
     17 C          62.6459   80.0666   12.8351 C.3     1  UNL1        0.0740
     18 N          63.3893   81.1731   12.1473 N.3     1  UNL1       -0.2684
     19 C          64.4444   81.9408   12.8871 C.3     1  UNL1        0.1046
     20 C          65.1878   83.0472   12.1993 C.3     1  UNL1        0.1595
     21 O          64.8762   83.3859   10.7716 O.3     1  UNL1       -0.3508
     22 C          63.8210   82.6181   10.0318 C.3     1  UNL1        0.1595
     23 C          63.0777   81.5117   10.7197 C.3     1  UNL1        0.1046
     24 O          63.3734   87.4974   12.0269 O.3     1  UNL1       -0.4551
     25 C          62.2538   88.3631   11.5299 C.3     1  UNL1        0.2543
     26 C          64.1973   90.6770   15.2737 C.ar    1  UNL1        0.2021
     27 C          64.3323   91.3274   16.6186 C.ar    1  UNL1        0.0489
     28 C          65.1069   92.5999   16.4425 C.ar    1  UNL1        0.0816
     29 C          65.4506   92.7358   14.9886 C.ar    1  UNL1        0.3014
     30 O          64.8884   91.5474   14.2664 O.2     1  UNL1       -0.4188
     31 O          66.2210   93.8623   14.3665 O.3     1  UNL1       -0.4238
     32 C          66.6231   93.7889   12.9231 C.ar    1  UNL1        0.1443
     33 C          66.2009   94.8685   11.9712 C.ar    1  UNL1        0.0327
     34 C          66.6029   94.7951   10.5279 C.ar    1  UNL1       -0.0237
     35 C          67.4271   93.6421   10.0366 C.ar    1  UNL1       -0.0263
     36 C          67.8493   92.5625   10.9886 C.ar    1  UNL1       -0.0058
     37 C          67.4472   92.6360   12.4319 C.ar    1  UNL1        0.0125
     38 C          67.8694   91.5563   13.3839 C.3     1  UNL1        0.0342
     39 C          67.6707   93.8383    8.5696 C.3     1  UNL1        0.0264
     40 C          66.9970   95.1125    8.1543 C.3     1  UNL1        0.0087
     41 C          66.3371   95.7039    9.3646 C.3     1  UNL1        0.0190
     42 C          65.9149   96.7835    8.4126 C.3     1  UNL1        0.0044
     43 C          65.5889   96.5209   10.3759 C.3     1  UNL1        0.0044
@<TRIPOS>BOND
     1    11    12    1
     2    12     5    1
     3     5     6   ar
     4     6     7   ar
     5     7    13    1
     6    13    15    1
     7    15    16    1
     8    16    17    1
     9    17    18    1
    10    18    19    1
    11    19    20    1
    12    20    21    1
    13    21    22    1
    14    22    23    1
    15     7     8   ar
    16     8     9   ar
    17     9    24    1
    18    24    25    1
    19     9    10   ar
    20    10     1    1
    21     1     2   am
    22     2     3    2
    23     2    26    1
    24    26    27   ar
    25    27    28   ar
    26    28    29   ar
    27    29    31    1
    28    31    32    1
    29    32    33   ar
    30    33    34   ar
    31    34    35   ar
    32    35    36   ar
    33    36    37   ar
    34    37    38    1
    35    35    39    1
    36    39    40    1
    37    40    41    1
    38    41    42    1
    39    41    43    1
    40    29    30   ar
    41    10     5   ar
    42    30    26   ar
    43    23    18    1
    44    37    32   ar
    45    41    34    1
    46    13    14    1
    47     1     4    1
@<TRIPOS>MOLECULE
*****
 43 47 0 0 0
SMALL
GASTEIGER

@<TRIPOS>ATOM
      1 N          60.6533   90.6098    5.9320 N.am    1  UNL1       -0.2705
      2 C          59.6299   89.5593    6.2473 C.2     1  UNL1        0.2846
      3 O          58.4350   89.3855    5.3574 O.2     1  UNL1       -0.2665
      4 H          61.4376   90.7239    6.5161 H       1  UNL1        0.1555
      5 C          59.1526   92.1221    4.4451 C.ar    1  UNL1        0.2459
      6 N          58.9809   92.9987    3.2400 N.ar    1  UNL1       -0.1777
      7 C          60.1384   93.2395    2.3168 C.ar    1  UNL1        0.2220
      8 N          61.4675   92.6039    2.5987 N.ar    1  UNL1       -0.1777
      9 C          61.6391   91.7273    3.8037 C.ar    1  UNL1        0.2459
     10 C          60.4816   91.4864    4.7269 C.ar    1  UNL1        0.1585
     11 C          56.6202   91.6687    4.8076 C.3     1  UNL1        0.2543
     12 O          57.9951   91.8812    5.3683 O.3     1  UNL1       -0.4551
     13 N          59.9667   94.1161    1.1118 N.pl3   1  UNL1       -0.3028
     14 H          59.8946   95.0920    1.2193 H       1  UNL1        0.1496
     15 C          59.9050   93.5056   -0.2570 C.3     1  UNL1        0.0910
     16 C          60.7136   94.0913   -1.3765 C.3     1  UNL1        0.0386
     17 C          61.7132   95.1732   -1.0935 C.3     1  UNL1        0.0740
     18 N          62.8442   94.9191   -0.1415 N.3     1  UNL1       -0.2684
     19 C          63.6964   93.6949   -0.2990 C.3     1  UNL1        0.1046
     20 C          64.8274   93.4408    0.6530 C.3     1  UNL1        0.1595
     21 O          65.1061   94.4109    1.7625 O.3     1  UNL1       -0.3508
     22 C          64.2538   95.6352    1.9201 C.3     1  UNL1        0.1595
     23 C          63.1229   95.8892    0.9681 C.3     1  UNL1        0.1046
     24 O          62.9682   91.0916    4.0856 O.3     1  UNL1       -0.4551
     25 C          63.8346   90.6305    2.9513 C.3     1  UNL1        0.2543
     26 C          59.8016   88.6828    7.4523 C.ar    1  UNL1        0.2021
     27 C          58.8913   87.5648    7.8662 C.ar    1  UNL1        0.0489
     28 C          59.4409   86.9614    9.1248 C.ar    1  UNL1        0.0816
     29 C          60.6909   87.7065    9.4887 C.ar    1  UNL1        0.3014
     30 O          60.9138   88.7704    8.4550 O.2     1  UNL1       -0.4188
     31 O          61.5645   87.4353   10.6774 O.3     1  UNL1       -0.4238
     32 C          62.2078   86.0905   10.8443 C.ar    1  UNL1        0.1443
     33 C          62.2834   85.4588   12.2027 C.ar    1  UNL1        0.0327
     34 C          62.9266   84.1141   12.3696 C.ar    1  UNL1       -0.0237
     35 C          63.4943   83.4011   11.1782 C.ar    1  UNL1       -0.0263
     36 C          63.4187   84.0328    9.8199 C.ar    1  UNL1       -0.0058
     37 C          62.7754   85.3776    9.6530 C.ar    1  UNL1        0.0125
     38 C          62.6998   86.0094    8.2945 C.3     1  UNL1        0.0342
     39 C          64.0644   82.0955   11.6476 C.3     1  UNL1        0.0264
     40 C          63.8492   82.0016   13.1291 C.3     1  UNL1        0.0087
     41 C          63.1460   83.2491   13.5753 C.3     1  UNL1        0.0190
     42 C          63.2216   82.6174   14.9337 C.3     1  UNL1        0.0044
     43 C          62.4586   84.3646   14.3056 C.3     1  UNL1        0.0044
@<TRIPOS>BOND
     1    11    12    1
     2    12     5    1
     3     5     6   ar
     4     6     7   ar
     5     7    13    1
     6    13    15    1
     7    15    16    1
     8    16    17    1
     9    17    18    1
    10    18    19    1
    11    19    20    1
    12    20    21    1
    13    21    22    1
    14    22    23    1
    15     7     8   ar
    16     8     9   ar
    17     9    24    1
    18    24    25    1
    19     9    10   ar
    20    10     1    1
    21     1     2   am
    22     2     3    2
    23     2    26    1
    24    26    27   ar
    25    27    28   ar
    26    28    29   ar
    27    29    31    1
    28    31    32    1
    29    32    33   ar
    30    33    34   ar
    31    34    35   ar
    32    35    36   ar
    33    36    37   ar
    34    37    38    1
    35    35    39    1
    36    39    40    1
    37    40    41    1
    38    41    42    1
    39    41    43    1
    40    29    30   ar
    41    10     5   ar
    42    30    26   ar
    43    23    18    1
    44    37    32   ar
    45    41    34    1
    46    13    14    1
    47     1     4    1
@<TRIPOS>MOLECULE
*****
 43 47 0 0 0
SMALL
GASTEIGER

@<TRIPOS>ATOM
      1 N          60.5932   90.5689    5.9505 N.am    1  UNL1       -0.2705
      2 C          59.5905   89.5031    6.2804 C.2     1  UNL1        0.2846
      3 O          58.3848   89.3121    5.4087 O.2     1  UNL1       -0.2665
      4 H          61.3846   90.6943    6.5226 H       1  UNL1        0.1555
      5 C          59.0411   92.0391    4.4741 C.ar    1  UNL1        0.2459
      6 N          58.8380   92.9138    3.2726 N.ar    1  UNL1       -0.1777
      7 C          59.9841   93.1932    2.3460 C.ar    1  UNL1        0.2220
      8 N          61.3331   92.5978    2.6209 N.ar    1  UNL1       -0.1777
      9 C          61.5361   91.7231    3.8224 C.ar    1  UNL1        0.2459
     10 C          60.3901   91.4437    4.7490 C.ar    1  UNL1        0.1585
     11 C          56.4907   91.7458    4.8738 C.3     1  UNL1        0.2543
     12 O          57.8950   91.7597    5.4008 O.3     1  UNL1       -0.4551
     13 N          59.7810   94.0679    1.1446 N.pl3   1  UNL1       -0.3028
     14 H          58.8898   94.4384    0.9504 H       1  UNL1        0.1496
     15 C          60.9358   94.3781    0.2389 C.3     1  UNL1        0.0910
     16 C          61.0116   93.7508   -1.1216 C.3     1  UNL1        0.0386
     17 C          60.0188   94.1318   -2.1795 C.3     1  UNL1        0.0740
     18 N          58.5573   93.8707   -1.9656 N.3     1  UNL1       -0.2684
     19 C          58.0094   92.4855   -2.1410 C.3     1  UNL1        0.1046
     20 C          56.5479   92.2244   -1.9270 C.3     1  UNL1        0.1595
     21 O          55.6343   93.3485   -1.5377 O.3     1  UNL1       -0.3508
     22 C          56.1823   94.7338   -1.3623 C.3     1  UNL1        0.1595
     23 C          57.6437   94.9949   -1.5762 C.3     1  UNL1        0.1046
     24 O          62.8852   91.1277    4.0973 O.3     1  UNL1       -0.4551
     25 C          63.8079   90.8037    2.9598 C.3     1  UNL1        0.2543
     26 C          59.7936   88.6285    7.4818 C.ar    1  UNL1        0.2021
     27 C          58.8932   87.5126    7.9224 C.ar    1  UNL1        0.0489
     28 C          59.4759   86.9105    9.1666 C.ar    1  UNL1        0.0816
     29 C          60.7366   87.6543    9.4950 C.ar    1  UNL1        0.3014
     30 O          60.9329   88.7160    8.4537 O.2     1  UNL1       -0.4188
     31 O          61.6418   87.3838   10.6599 O.3     1  UNL1       -0.4238
     32 C          62.2538   86.0254   10.8348 C.ar    1  UNL1        0.1443
     33 C          62.2916   85.3891   12.1926 C.ar    1  UNL1        0.0327
     34 C          62.9035   84.0308   12.3674 C.ar    1  UNL1       -0.0237
     35 C          63.4776   83.3089   11.1845 C.ar    1  UNL1       -0.0263
     36 C          63.4397   83.9452    9.8267 C.ar    1  UNL1       -0.0058
     37 C          62.8278   85.3036    9.6519 C.ar    1  UNL1        0.0125
     38 C          62.7899   85.9399    8.2940 C.3     1  UNL1        0.0342
     39 C          64.0118   81.9905   11.6605 C.3     1  UNL1        0.0264
     40 C          63.7679   81.8977   13.1377 C.3     1  UNL1        0.0087
     41 C          63.0829   83.1587   13.5746 C.3     1  UNL1        0.0190
     42 C          63.1208   82.5223   14.9324 C.3     1  UNL1        0.0044
     43 C          62.4059   84.2866   14.2953 C.3     1  UNL1        0.0044
@<TRIPOS>BOND
     1    11    12    1
     2    12     5    1
     3     5     6   ar
     4     6     7   ar
     5     7    13    1
     6    13    15    1
     7    15    16    1
     8    16    17    1
     9    17    18    1
    10    18    19    1
    11    19    20    1
    12    20    21    1
    13    21    22    1
    14    22    23    1
    15     7     8   ar
    16     8     9   ar
    17     9    24    1
    18    24    25    1
    19     9    10   ar
    20    10     1    1
    21     1     2   am
    22     2     3    2
    23     2    26    1
    24    26    27   ar
    25    27    28   ar
    26    28    29   ar
    27    29    31    1
    28    31    32    1
    29    32    33   ar
    30    33    34   ar
    31    34    35   ar
    32    35    36   ar
    33    36    37   ar
    34    37    38    1
    35    35    39    1
    36    39    40    1
    37    40    41    1
    38    41    42    1
    39    41    43    1
    40    29    30   ar
    41    10     5   ar
    42    30    26   ar
    43    23    18    1
    44    37    32   ar
    45    41    34    1
    46    13    14    1
    47     1     4    1
