@<TRIPOS>MOLECULE
*****
 35 40 0 0 0
SMALL
GASTEIGER

@<TRIPOS>ATOM
      1 N          65.5299   92.5886   17.1605 N.pl3   1  UNL1       -0.3400
      2 C          65.4834   92.4406   15.6686 C.ar    1  UNL1        0.1648
      3 N          66.1757   93.3237   14.6730 N.ar    1  UNL1       -0.1491
      4 N          65.8567   92.8124   13.2994 N.ar    1  UNL1       -0.2306
      5 C          64.9673   91.6134   13.4460 C.ar    1  UNL1        0.1029
      6 C          64.3377   90.7011   12.4354 C.ar    1  UNL1        0.0238
      7 C          63.4775   89.5591   12.8890 C.ar    1  UNL1        0.0380
      8 C          63.2468   89.3294   14.3533 C.ar    1  UNL1        0.1005
      9 N          63.8764   90.2416   15.3639 N.ar    1  UNL1       -0.2394
     10 C          64.7366   91.3836   14.9103 C.ar    1  UNL1        0.1316
     11 H          66.0506   93.3187   17.5668 H       1  UNL1        0.1438
     12 H          65.0396   91.9557   17.7335 H       1  UNL1        0.1438
     13 C          66.3418   93.3973   12.0062 C.2     1  UNL1        0.0666
     14 C          66.9774   92.5131   10.9747 C.2     1  UNL1        0.0152
     15 C          67.4626   93.0981    9.6815 C.2     1  UNL1        0.0041
     16 C          67.3121   94.5674    9.4197 C.2     1  UNL1        0.0367
     17 C          67.6923   95.4221    8.2472 C.2     1  UNL1        0.1233
     18 N          67.2917   96.8347    8.5540 N.2     1  UNL1       -0.1467
     19 N          66.6639   96.8530    9.9162 N.2     1  UNL1       -0.1519
     20 C          66.6765   95.4517   10.4512 C.2     1  UNL1        0.0880
     21 C          66.1914   94.8667   11.7444 C.3     1  UNL1        0.0934
     22 C          62.8479   88.6468   11.8784 C.ar    1  UNL1        0.0814
     23 C          62.1201   89.0733   10.6381 C.ar    1  UNL1        0.0412
     24 C          61.6580   87.8379    9.9238 C.ar    1  UNL1        0.1217
     25 N          62.1001   86.6478   10.7227 N.ar    1  UNL1       -0.1674
     26 N          62.8355   87.1477   11.9307 N.ar    1  UNL1       -0.2463
     27 C          63.4506   86.2978   13.0028 C.3     1  UNL1        0.1546
     28 C          63.0849   84.8472   13.1120 C.ar    1  UNL1        0.0127
     29 C          63.0142   83.9966   11.8786 C.ar    1  UNL1       -0.0006
     30 C          62.6485   82.5460   11.9879 C.ar    1  UNL1        0.0112
     31 C          62.3534   81.9460   13.3307 C.ar    1  UNL1        0.0585
     32 CL         61.9877   80.4953   13.4399 Cl      1  UNL1       -0.0822
     33 C          62.4241   82.7967   14.5641 C.ar    1  UNL1        0.0225
     34 C          62.7898   84.2473   14.4548 C.ar    1  UNL1        0.0564
     35 CL         62.8605   85.0980   15.6882 Cl      1  UNL1       -0.0825
@<TRIPOS>BOND
     1     1     2    1
     2     2     3   ar
     3     3     4   ar
     4     4    13    1
     5    13    14    2
     6    14    15    1
     7    15    16    2
     8    16    17    1
     9    17    18    2
    10    18    19    1
    11    19    20    2
    12    20    21    1
    13     4     5   ar
    14     5     6   ar
    15     6     7   ar
    16     7    22    1
    17    22    23   ar
    18    23    24   ar
    19    24    25   ar
    20    25    26   ar
    21    26    27    1
    22    27    28    1
    23    28    29   ar
    24    29    30   ar
    25    30    31   ar
    26    31    32    1
    27    31    33   ar
    28    33    34   ar
    29    34    35    1
    30     7     8   ar
    31     8     9   ar
    32     9    10   ar
    33    10     2   ar
    34    21    13    1
    35    10     5   ar
    36    20    16    1
    37    26    22   ar
    38    34    28   ar
    39     1    11    1
    40     1    12    1
@<TRIPOS>MOLECULE
*****
 35 40 0 0 0
SMALL
GASTEIGER

@<TRIPOS>ATOM
      1 N          60.3575   89.1830    8.4511 N.pl3   1  UNL1       -0.3400
      2 C          61.1864   88.6761    9.5939 C.ar    1  UNL1        0.1648
      3 N          61.3365   87.2417   10.0061 N.ar    1  UNL1       -0.1491
      4 N          62.2536   87.1938   11.1921 N.ar    1  UNL1       -0.2306
      5 C          62.6703   88.5986   11.5129 C.ar    1  UNL1        0.1029
      6 C          63.5652   89.1619   12.5768 C.ar    1  UNL1        0.0238
      7 C          63.8004   90.6413   12.6529 C.ar    1  UNL1        0.0380
      8 C          63.1409   91.5575   11.6652 C.ar    1  UNL1        0.1005
      9 N          62.2460   90.9942   10.6013 N.ar    1  UNL1       -0.2394
     10 C          62.0108   89.5147   10.5251 C.ar    1  UNL1        0.1316
     11 H          59.8486   88.5509    7.8937 H       1  UNL1        0.1438
     12 H          60.3224   90.1478    8.2584 H       1  UNL1        0.1438
     13 C          62.6793   85.9580   11.9281 C.2     1  UNL1        0.0666
     14 C          63.3932   86.0761   13.2419 C.2     1  UNL1        0.0152
     15 C          63.8188   84.8403   13.9780 C.2     1  UNL1        0.0041
     16 C          63.5306   83.4864   13.4001 C.2     1  UNL1        0.0367
     17 C          63.8266   82.1010   13.8929 C.2     1  UNL1        0.1233
     18 N          63.2957   81.1267   12.8836 N.2     1  UNL1       -0.1467
     19 N          62.6714   81.9099   11.7670 N.2     1  UNL1       -0.1519
     20 C          62.8166   83.3683   12.0862 C.2     1  UNL1        0.0880
     21 C          62.3910   84.6041   11.3502 C.3     1  UNL1        0.0934
     22 C          64.6953   91.2047   13.7169 C.ar    1  UNL1        0.0814
     23 C          64.3569   91.3423   15.1717 C.ar    1  UNL1        0.0412
     24 C          65.5381   91.9520   15.8667 C.ar    1  UNL1        0.1217
     25 N          66.6066   92.1912   14.8413 N.ar    1  UNL1       -0.1674
     26 N          66.0856   91.7294   13.5127 N.ar    1  UNL1       -0.2463
     27 C          66.8252   91.7828   12.2088 C.3     1  UNL1        0.1546
     28 C          66.8431   93.0510   11.4081 C.ar    1  UNL1        0.0127
     29 C          66.1866   94.2875   11.9467 C.ar    1  UNL1       -0.0006
     30 C          66.2044   95.5557   11.1458 C.ar    1  UNL1        0.0112
     31 C          66.8788   95.5874    9.8064 C.ar    1  UNL1        0.0585
     32 CL         66.8967   96.8557    9.0056 Cl      1  UNL1       -0.0822
     33 C          67.5353   94.3509    9.2677 C.ar    1  UNL1        0.0225
     34 C          67.5175   93.0827   10.0686 C.ar    1  UNL1        0.0564
     35 CL         68.1740   91.8463    9.5299 Cl      1  UNL1       -0.0825
@<TRIPOS>BOND
     1     1     2    1
     2     2     3   ar
     3     3     4   ar
     4     4    13    1
     5    13    14    2
     6    14    15    1
     7    15    16    2
     8    16    17    1
     9    17    18    2
    10    18    19    1
    11    19    20    2
    12    20    21    1
    13     4     5   ar
    14     5     6   ar
    15     6     7   ar
    16     7    22    1
    17    22    23   ar
    18    23    24   ar
    19    24    25   ar
    20    25    26   ar
    21    26    27    1
    22    27    28    1
    23    28    29   ar
    24    29    30   ar
    25    30    31   ar
    26    31    32    1
    27    31    33   ar
    28    33    34   ar
    29    34    35    1
    30     7     8   ar
    31     8     9   ar
    32     9    10   ar
    33    10     2   ar
    34    21    13    1
    35    10     5   ar
    36    20    16    1
    37    26    22   ar
    38    34    28   ar
    39     1    11    1
    40     1    12    1
@<TRIPOS>MOLECULE
*****
 35 40 0 0 0
SMALL
GASTEIGER

@<TRIPOS>ATOM
      1 N          66.2476   93.4064   12.4920 N.pl3   1  UNL1       -0.3400
      2 C          65.3672   92.2213   12.7577 C.ar    1  UNL1        0.1648
      3 N          65.3317   91.4152   14.0222 N.ar    1  UNL1       -0.1491
      4 N          64.3103   90.3301   13.8515 N.ar    1  UNL1       -0.2306
      5 C          63.7146   90.4655   12.4816 C.ar    1  UNL1        0.1029
      6 C          62.6617   89.6755   11.7624 C.ar    1  UNL1        0.0238
      7 C          62.2621   90.0543   10.3671 C.ar    1  UNL1        0.0380
      8 C          62.9153   91.2232    9.6911 C.ar    1  UNL1        0.1005
      9 N          63.9682   92.0132   10.4103 N.ar    1  UNL1       -0.2394
     10 C          64.3678   91.6344   11.8055 C.ar    1  UNL1        0.1316
     11 H          66.8752   93.7183   13.1835 H       1  UNL1        0.1438
     12 H          66.1979   93.8722   11.6261 H       1  UNL1        0.1438
     13 C          63.9482   89.2917   14.8717 C.2     1  UNL1        0.0666
     14 C          63.2796   89.6985   16.1512 C.2     1  UNL1        0.0152
     15 C          62.9175   88.6602   17.1714 C.2     1  UNL1        0.0041
     16 C          63.2240   87.2150   16.9120 C.2     1  UNL1        0.0367
     17 C          62.9868   85.9770   17.7251 C.2     1  UNL1        0.1233
     18 N          63.5089   84.8050   16.9480 N.2     1  UNL1       -0.1467
     19 N          64.0687   85.3186   15.6547 N.2     1  UNL1       -0.1519
     20 C          63.8926   86.8081   15.6324 C.2     1  UNL1        0.0880
     21 C          64.2547   87.8464   14.6122 C.3     1  UNL1        0.0934
     22 C          61.2091   89.2643    9.6479 C.ar    1  UNL1        0.0814
     23 C          60.4121   89.7292    8.4652 C.ar    1  UNL1        0.0412
     24 C          59.4788   88.6229    8.0714 C.ar    1  UNL1        0.1217
     25 N          59.6990   87.4742    9.0107 N.ar    1  UNL1       -0.1674
     26 N          60.7684   87.8707    9.9850 N.ar    1  UNL1       -0.2463
     27 C          61.3032   87.0225   11.1006 C.3     1  UNL1        0.1546
     28 C          62.1439   85.8194   10.7913 C.ar    1  UNL1        0.0127
     29 C          62.6271   85.5818    9.3913 C.ar    1  UNL1       -0.0006
     30 C          63.4679   84.3787    9.0820 C.ar    1  UNL1        0.0112
     31 C          63.8254   83.4131   10.1729 C.ar    1  UNL1        0.0585
     32 CL         64.6662   82.2100    9.8635 Cl      1  UNL1       -0.0822
     33 C          63.3422   83.6507   11.5729 C.ar    1  UNL1        0.0225
     34 C          62.5014   84.8538   11.8821 C.ar    1  UNL1        0.0564
     35 CL         62.0182   85.0914   13.2821 Cl      1  UNL1       -0.0825
@<TRIPOS>BOND
     1     1     2    1
     2     2     3   ar
     3     3     4   ar
     4     4    13    1
     5    13    14    2
     6    14    15    1
     7    15    16    2
     8    16    17    1
     9    17    18    2
    10    18    19    1
    11    19    20    2
    12    20    21    1
    13     4     5   ar
    14     5     6   ar
    15     6     7   ar
    16     7    22    1
    17    22    23   ar
    18    23    24   ar
    19    24    25   ar
    20    25    26   ar
    21    26    27    1
    22    27    28    1
    23    28    29   ar
    24    29    30   ar
    25    30    31   ar
    26    31    32    1
    27    31    33   ar
    28    33    34   ar
    29    34    35    1
    30     7     8   ar
    31     8     9   ar
    32     9    10   ar
    33    10     2   ar
    34    21    13    1
    35    10     5   ar
    36    20    16    1
    37    26    22   ar
    38    34    28   ar
    39     1    11    1
    40     1    12    1
@<TRIPOS>MOLECULE
*****
 35 40 0 0 0
SMALL
GASTEIGER

@<TRIPOS>ATOM
      1 N          62.5487   87.1384   19.0907 N.pl3   1  UNL1       -0.3400
      2 C          62.9399   87.0068   17.6486 C.ar    1  UNL1        0.1648
      3 N          63.0471   85.7247   16.8776 N.ar    1  UNL1       -0.1491
      4 N          63.4661   86.0598   15.4768 N.ar    1  UNL1       -0.2306
      5 C          63.6177   87.5491   15.3821 C.ar    1  UNL1        0.1029
      6 C          64.0099   88.4479   14.2470 C.ar    1  UNL1        0.0238
      7 C          64.0770   89.9319   14.4542 C.ar    1  UNL1        0.0380
      8 C          63.7518   90.5173   15.7965 C.ar    1  UNL1        0.1005
      9 N          63.3595   89.6185   16.9315 N.ar    1  UNL1       -0.2394
     10 C          63.2925   88.1344   16.7243 C.ar    1  UNL1        0.1316
     11 H          62.3341   86.3351   19.6177 H       1  UNL1        0.1438
     12 H          62.5065   88.0281   19.5101 H       1  UNL1        0.1438
     13 C          63.6934   85.0780   14.3657 C.2     1  UNL1        0.0666
     14 C          64.3392   83.7553   14.6541 C.2     1  UNL1        0.0152
     15 C          64.5665   82.7735   13.5431 C.2     1  UNL1        0.0041
     16 C          64.1481   83.1145   12.1436 C.2     1  UNL1        0.0367
     17 C          64.2427   82.3539   10.8542 C.2     1  UNL1        0.1233
     18 N          63.6554   83.2066    9.7688 N.2     1  UNL1       -0.1467
     19 N          63.1978   84.4942   10.3875 N.2     1  UNL1       -0.1519
     20 C          63.5023   84.4372   11.8551 C.2     1  UNL1        0.0880
     21 C          63.2749   85.4190   12.9662 C.3     1  UNL1        0.0934
     22 C          64.4692   90.8308   13.3192 C.ar    1  UNL1        0.0814
     23 C          65.8305   91.4168   13.0885 C.ar    1  UNL1        0.0412
     24 C          65.7716   92.2496   11.8423 C.ar    1  UNL1        0.1217
     25 N          64.3738   92.1783   11.3028 N.ar    1  UNL1       -0.1674
     26 N          63.5689   91.3014   12.2156 N.ar    1  UNL1       -0.2463
     27 C          62.1183   90.9558   12.0532 C.3     1  UNL1        0.1546
     28 C          61.7193   89.7491   11.2567 C.ar    1  UNL1        0.0127
     29 C          62.7534   88.9844   10.4847 C.ar    1  UNL1       -0.0006
     30 C          62.3544   87.7776    9.6882 C.ar    1  UNL1        0.0112
     31 C          60.9212   87.3356    9.6636 C.ar    1  UNL1        0.0585
     32 CL         60.5222   86.1287    8.8670 Cl      1  UNL1       -0.0822
     33 C          59.8871   88.1002   10.4355 C.ar    1  UNL1        0.0225
     34 C          60.2861   89.3070   11.2321 C.ar    1  UNL1        0.0564
     35 CL         59.2520   90.0717   12.0040 Cl      1  UNL1       -0.0825
@<TRIPOS>BOND
     1     1     2    1
     2     2     3   ar
     3     3     4   ar
     4     4    13    1
     5    13    14    2
     6    14    15    1
     7    15    16    2
     8    16    17    1
     9    17    18    2
    10    18    19    1
    11    19    20    2
    12    20    21    1
    13     4     5   ar
    14     5     6   ar
    15     6     7   ar
    16     7    22    1
    17    22    23   ar
    18    23    24   ar
    19    24    25   ar
    20    25    26   ar
    21    26    27    1
    22    27    28    1
    23    28    29   ar
    24    29    30   ar
    25    30    31   ar
    26    31    32    1
    27    31    33   ar
    28    33    34   ar
    29    34    35    1
    30     7     8   ar
    31     8     9   ar
    32     9    10   ar
    33    10     2   ar
    34    21    13    1
    35    10     5   ar
    36    20    16    1
    37    26    22   ar
    38    34    28   ar
    39     1    11    1
    40     1    12    1
@<TRIPOS>MOLECULE
*****
 35 40 0 0 0
SMALL
GASTEIGER

@<TRIPOS>ATOM
      1 N          59.6975   88.6060    7.7996 N.pl3   1  UNL1       -0.3400
      2 C          60.6133   88.0888    8.8690 C.ar    1  UNL1        0.1648
      3 N          60.9584   86.6498    9.1142 N.ar    1  UNL1       -0.1491
      4 N          61.9032   86.5915   10.2777 N.ar    1  UNL1       -0.2306
      5 C          62.1421   87.9944   10.7517 C.ar    1  UNL1        0.1029
      6 C          62.9825   88.5488   11.8636 C.ar    1  UNL1        0.0238
      7 C          63.0257   90.0286   12.1048 C.ar    1  UNL1        0.0380
      8 C          62.2285   90.9541   11.2342 C.ar    1  UNL1        0.1005
      9 N          61.3881   90.3997   10.1223 N.ar    1  UNL1       -0.2394
     10 C          61.3449   88.9199    9.8811 C.ar    1  UNL1        0.1316
     11 H          59.2612   87.9783    7.1792 H       1  UNL1        0.1438
     12 H          59.5327   89.5732    7.7180 H       1  UNL1        0.1438
     13 C          62.5038   85.3484   10.8644 C.2     1  UNL1        0.0666
     14 C          63.3125   84.4265   10.0008 C.2     1  UNL1        0.0152
     15 C          63.9130   83.1834   10.5874 C.2     1  UNL1        0.0041
     16 C          63.7049   82.8623   12.0378 C.2     1  UNL1        0.0367
     17 C          64.1702   81.7186   12.8894 C.2     1  UNL1        0.1233
     18 N          63.6492   81.9336   14.2794 N.2     1  UNL1       -0.1467
     19 N          62.8618   83.2103   14.2869 N.2     1  UNL1       -0.1519
     20 C          62.8962   83.7842   12.9015 C.2     1  UNL1        0.0880
     21 C          62.2956   85.0273   12.3148 C.3     1  UNL1        0.0934
     22 C          63.8661   90.5831   13.2168 C.ar    1  UNL1        0.0814
     23 C          64.0431   89.9741   14.5761 C.ar    1  UNL1        0.0412
     24 C          64.9634   90.8585   15.3640 C.ar    1  UNL1        0.1217
     25 N          65.3553   92.0142   14.4915 N.ar    1  UNL1       -0.1674
     26 N          64.6771   91.8439   13.1645 N.ar    1  UNL1       -0.2463
     27 C          64.7900   92.7716   11.9912 C.3     1  UNL1        0.1546
     28 C          66.0308   92.7672   11.1483 C.ar    1  UNL1        0.0127
     29 C          67.0256   91.6528   11.2837 C.ar    1  UNL1       -0.0006
     30 C          68.2663   91.6485   10.4407 C.ar    1  UNL1        0.0112
     31 C          68.5122   92.7587    9.4624 C.ar    1  UNL1        0.0585
     32 CL         69.7530   92.7543    8.6195 Cl      1  UNL1       -0.0822
     33 C          67.5174   93.8732    9.3271 C.ar    1  UNL1        0.0225
     34 C          66.2767   93.8774   10.1700 C.ar    1  UNL1        0.0564
     35 CL         65.2818   94.9919   10.0347 Cl      1  UNL1       -0.0825
@<TRIPOS>BOND
     1     1     2    1
     2     2     3   ar
     3     3     4   ar
     4     4    13    1
     5    13    14    2
     6    14    15    1
     7    15    16    2
     8    16    17    1
     9    17    18    2
    10    18    19    1
    11    19    20    2
    12    20    21    1
    13     4     5   ar
    14     5     6   ar
    15     6     7   ar
    16     7    22    1
    17    22    23   ar
    18    23    24   ar
    19    24    25   ar
    20    25    26   ar
    21    26    27    1
    22    27    28    1
    23    28    29   ar
    24    29    30   ar
    25    30    31   ar
    26    31    32    1
    27    31    33   ar
    28    33    34   ar
    29    34    35    1
    30     7     8   ar
    31     8     9   ar
    32     9    10   ar
    33    10     2   ar
    34    21    13    1
    35    10     5   ar
    36    20    16    1
    37    26    22   ar
    38    34    28   ar
    39     1    11    1
    40     1    12    1
@<TRIPOS>MOLECULE
*****
 35 40 0 0 0
SMALL
GASTEIGER

@<TRIPOS>ATOM
      1 N          64.6420   82.1182   12.5301 N.pl3   1  UNL1       -0.3400
      2 C          63.9987   83.4397   12.2305 C.ar    1  UNL1        0.1648
      3 N          63.1944   83.7720   11.0088 N.ar    1  UNL1       -0.1491
      4 N          62.7455   85.1987   11.1234 N.ar    1  UNL1       -0.2306
      5 C          63.2724   85.7481   12.4159 C.ar    1  UNL1        0.1029
      6 C          63.1470   87.0978   13.0581 C.ar    1  UNL1        0.0238
      7 C          63.7961   87.3604   14.3846 C.ar    1  UNL1        0.0380
      8 C          64.5707   86.2733   15.0689 C.ar    1  UNL1        0.1005
      9 N          64.6961   84.9236   14.4266 N.ar    1  UNL1       -0.2394
     10 C          64.0470   84.6610   13.1002 C.ar    1  UNL1        0.1316
     11 H          64.5536   81.3722   11.8938 H       1  UNL1        0.1438
     12 H          65.1526   81.9968   13.3630 H       1  UNL1        0.1438
     13 C          61.9154   85.9450   10.1214 C.2     1  UNL1        0.0666
     14 C          61.4350   85.2523    8.8807 C.2     1  UNL1        0.0152
     15 C          60.6049   85.9986    7.8787 C.2     1  UNL1        0.0041
     16 C          60.2552   87.4376    8.1174 C.2     1  UNL1        0.0367
     17 C          59.4589   88.4235    7.3149 C.2     1  UNL1        0.1233
     18 N          59.4471   89.7254    8.0596 N.2     1  UNL1       -0.1467
     19 N          60.2361   89.5442    9.3225 N.2     1  UNL1       -0.1519
     20 C          60.7355   88.1303    9.3581 C.2     1  UNL1        0.0880
     21 C          61.5656   87.3840   10.3601 C.3     1  UNL1        0.0934
     22 C          63.6707   88.7102   15.0269 C.ar    1  UNL1        0.0814
     23 C          63.4834   88.9758   16.4912 C.ar    1  UNL1        0.0412
     24 C          63.4075   90.4611   16.6869 C.ar    1  UNL1        0.1217
     25 N          63.5479   91.1134   15.3434 N.ar    1  UNL1       -0.1674
     26 N          63.7106   90.0313   14.3175 N.ar    1  UNL1       -0.2463
     27 C          63.8828   90.2345   12.8414 C.3     1  UNL1        0.1546
     28 C          64.6239   91.4346   12.3310 C.ar    1  UNL1        0.0127
     29 C          65.6591   92.0982   13.1900 C.ar    1  UNL1       -0.0006
     30 C          66.4001   93.2983   12.6794 C.ar    1  UNL1        0.0112
     31 C          66.1059   93.8348   11.3099 C.ar    1  UNL1        0.0585
     32 CL         66.8470   95.0350   10.7995 Cl      1  UNL1       -0.0822
     33 C          65.0706   93.1712   10.4509 C.ar    1  UNL1        0.0225
     34 C          64.3296   91.9711   10.9614 C.ar    1  UNL1        0.0564
     35 CL         63.2944   91.3075   10.1024 Cl      1  UNL1       -0.0825
@<TRIPOS>BOND
     1     1     2    1
     2     2     3   ar
     3     3     4   ar
     4     4    13    1
     5    13    14    2
     6    14    15    1
     7    15    16    2
     8    16    17    1
     9    17    18    2
    10    18    19    1
    11    19    20    2
    12    20    21    1
    13     4     5   ar
    14     5     6   ar
    15     6     7   ar
    16     7    22    1
    17    22    23   ar
    18    23    24   ar
    19    24    25   ar
    20    25    26   ar
    21    26    27    1
    22    27    28    1
    23    28    29   ar
    24    29    30   ar
    25    30    31   ar
    26    31    32    1
    27    31    33   ar
    28    33    34   ar
    29    34    35    1
    30     7     8   ar
    31     8     9   ar
    32     9    10   ar
    33    10     2   ar
    34    21    13    1
    35    10     5   ar
    36    20    16    1
    37    26    22   ar
    38    34    28   ar
    39     1    11    1
    40     1    12    1
@<TRIPOS>MOLECULE
*****
 35 40 0 0 0
SMALL
GASTEIGER

@<TRIPOS>ATOM
      1 N          62.8844   87.6438   19.3277 N.pl3   1  UNL1       -0.3400
      2 C          63.0610   87.2956   17.8794 C.ar    1  UNL1        0.1648
      3 N          63.1121   85.9107   17.3054 N.ar    1  UNL1       -0.1491
      4 N          63.3002   86.0305   15.8221 N.ar    1  UNL1       -0.2306
      5 C          63.3655   87.4894   15.4794 C.ar    1  UNL1        0.1029
      6 C          63.5405   88.2068   14.1738 C.ar    1  UNL1        0.0238
      7 C          63.5676   89.7061   14.1397 C.ar    1  UNL1        0.0380
      8 C          63.4197   90.4880   15.4112 C.ar    1  UNL1        0.1005
      9 N          63.2448   89.7706   16.7168 N.ar    1  UNL1       -0.2394
     10 C          63.2177   88.2713   16.7509 C.ar    1  UNL1        0.1316
     11 H          62.7893   86.9288   19.9978 H       1  UNL1        0.1438
     12 H          62.8635   88.5873   19.6082 H       1  UNL1        0.1438
     13 C          63.4048   84.8914   14.8518 C.2     1  UNL1        0.0666
     14 C          64.1595   85.0669   13.5676 C.2     1  UNL1        0.0152
     15 C          64.2641   83.9278   12.5973 C.2     1  UNL1        0.0041
     16 C          63.6139   82.6130   12.9113 C.2     1  UNL1        0.0367
     17 C          63.5475   81.3199   12.1541 C.2     1  UNL1        0.1233
     18 N          62.7517   80.3450   12.9704 N.2     1  UNL1       -0.1467
     19 N          62.3263   81.0357   14.2322 N.2     1  UNL1       -0.1519
     20 C          62.8591   82.4374   14.1956 C.2     1  UNL1        0.0880
     21 C          62.7546   83.5765   15.1659 C.3     1  UNL1        0.0934
     22 C          63.7426   90.4236   12.8340 C.ar    1  UNL1        0.0814
     23 C          64.8558   91.3679   12.4891 C.ar    1  UNL1        0.0412
     24 C          64.6363   91.8506   11.0860 C.ar    1  UNL1        0.1217
     25 N          63.3872   91.2047   10.5637 N.ar    1  UNL1       -0.1674
     26 N          62.8349   90.3228   11.6441 N.ar    1  UNL1       -0.2463
     27 C          61.5929   89.4868   11.5508 C.3     1  UNL1        0.1546
     28 C          61.4810   88.4249   10.4974 C.ar    1  UNL1        0.0127
     29 C          62.1946   87.1171   10.6720 C.ar    1  UNL1       -0.0006
     30 C          62.0826   86.0552    9.6185 C.ar    1  UNL1        0.0112
     31 C          61.2570   86.3010    8.3905 C.ar    1  UNL1        0.0585
     32 CL         61.1450   85.2390    7.3371 Cl      1  UNL1       -0.0822
     33 C          60.5434   87.6088    8.2160 C.ar    1  UNL1        0.0225
     34 C          60.6554   88.6707    9.2694 C.ar    1  UNL1        0.0564
     35 CL         59.9418   89.9785    9.0949 Cl      1  UNL1       -0.0825
@<TRIPOS>BOND
     1     1     2    1
     2     2     3   ar
     3     3     4   ar
     4     4    13    1
     5    13    14    2
     6    14    15    1
     7    15    16    2
     8    16    17    1
     9    17    18    2
    10    18    19    1
    11    19    20    2
    12    20    21    1
    13     4     5   ar
    14     5     6   ar
    15     6     7   ar
    16     7    22    1
    17    22    23   ar
    18    23    24   ar
    19    24    25   ar
    20    25    26   ar
    21    26    27    1
    22    27    28    1
    23    28    29   ar
    24    29    30   ar
    25    30    31   ar
    26    31    32    1
    27    31    33   ar
    28    33    34   ar
    29    34    35    1
    30     7     8   ar
    31     8     9   ar
    32     9    10   ar
    33    10     2   ar
    34    21    13    1
    35    10     5   ar
    36    20    16    1
    37    26    22   ar
    38    34    28   ar
    39     1    11    1
    40     1    12    1
@<TRIPOS>MOLECULE
*****
 35 40 0 0 0
SMALL
GASTEIGER

@<TRIPOS>ATOM
      1 N          60.1953   89.3566    8.8955 N.pl3   1  UNL1       -0.3400
      2 C          61.2822   89.4464    9.9253 C.ar    1  UNL1        0.1648
      3 N          62.0883   90.6685   10.2522 N.ar    1  UNL1       -0.1491
      4 N          63.0581   90.3072   11.3380 N.ar    1  UNL1       -0.2306
      5 C          62.8513   88.8620   11.6822 C.ar    1  UNL1        0.1029
      6 C          63.5207   87.9617   12.6779 C.ar    1  UNL1        0.0238
      7 C          63.0924   86.5293   12.8004 C.ar    1  UNL1        0.0380
      8 C          61.9949   85.9974   11.9274 C.ar    1  UNL1        0.1005
      9 N          61.3255   86.8977   10.9317 N.ar    1  UNL1       -0.2394
     10 C          61.7537   88.3300   10.8092 C.ar    1  UNL1        0.1316
     11 H          59.9561   90.1486    8.3619 H       1  UNL1        0.1438
     12 H          59.7211   88.5057    8.7532 H       1  UNL1        0.1438
     13 C          64.0589   91.2293   11.9689 C.2     1  UNL1        0.0666
     14 C          64.7477   92.2706   11.1375 C.2     1  UNL1        0.0152
     15 C          65.7486   93.1927   11.7684 C.2     1  UNL1        0.0041
     16 C          66.0607   93.0736   13.2307 C.2     1  UNL1        0.0367
     17 C          66.9944   93.8362   14.1231 C.2     1  UNL1        0.1233
     18 N          66.8828   93.2663   15.5061 N.2     1  UNL1       -0.1467
     19 N          65.8800   92.1514   15.4684 N.2     1  UNL1       -0.1519
     20 C          65.3719   92.0323   14.0621 C.2     1  UNL1        0.0880
     21 C          64.3711   91.1101   13.4313 C.3     1  UNL1        0.0934
     22 C          63.7618   85.6290   13.7961 C.ar    1  UNL1        0.0814
     23 C          64.9523   85.9776   14.6395 C.ar    1  UNL1        0.0412
     24 C          65.2844   84.7860   15.4878 C.ar    1  UNL1        0.1217
     25 N          64.2992   83.7008   15.1687 N.ar    1  UNL1       -0.1674
     26 N          63.3582   84.2218   14.1232 N.ar    1  UNL1       -0.2463
     27 C          62.2144   83.4679   13.5122 C.3     1  UNL1        0.1546
     28 C          62.4821   82.3550   12.5428 C.ar    1  UNL1        0.0127
     29 C          63.1326   82.6496   11.2236 C.ar    1  UNL1       -0.0006
     30 C          63.4003   81.5366   10.2543 C.ar    1  UNL1        0.0112
     31 C          63.0176   80.1291   10.6042 C.ar    1  UNL1        0.0585
     32 CL         63.2853   79.0161    9.6347 Cl      1  UNL1       -0.0822
     33 C          62.3672   79.8345   11.9233 C.ar    1  UNL1        0.0225
     34 C          62.0994   80.9475   12.8926 C.ar    1  UNL1        0.0564
     35 CL         61.4490   80.6529   14.2118 Cl      1  UNL1       -0.0825
@<TRIPOS>BOND
     1     1     2    1
     2     2     3   ar
     3     3     4   ar
     4     4    13    1
     5    13    14    2
     6    14    15    1
     7    15    16    2
     8    16    17    1
     9    17    18    2
    10    18    19    1
    11    19    20    2
    12    20    21    1
    13     4     5   ar
    14     5     6   ar
    15     6     7   ar
    16     7    22    1
    17    22    23   ar
    18    23    24   ar
    19    24    25   ar
    20    25    26   ar
    21    26    27    1
    22    27    28    1
    23    28    29   ar
    24    29    30   ar
    25    30    31   ar
    26    31    32    1
    27    31    33   ar
    28    33    34   ar
    29    34    35    1
    30     7     8   ar
    31     8     9   ar
    32     9    10   ar
    33    10     2   ar
    34    21    13    1
    35    10     5   ar
    36    20    16    1
    37    26    22   ar
    38    34    28   ar
    39     1    11    1
    40     1    12    1
@<TRIPOS>MOLECULE
*****
 35 40 0 0 0
SMALL
GASTEIGER

@<TRIPOS>ATOM
      1 N          64.2288   82.9299   12.7424 N.pl3   1  UNL1       -0.3400
      2 C          63.7131   84.3128   12.4744 C.ar    1  UNL1        0.1648
      3 N          62.9048   84.7371   11.2842 N.ar    1  UNL1       -0.1491
      4 N          62.6073   86.2006   11.4239 N.ar    1  UNL1       -0.2306
      5 C          63.2319   86.6809   12.7004 C.ar    1  UNL1        0.1029
      6 C          63.2665   88.0298   13.3554 C.ar    1  UNL1        0.0238
      7 C          63.9846   88.2120   14.6596 C.ar    1  UNL1        0.0380
      8 C          64.6680   87.0452   15.3089 C.ar    1  UNL1        0.1005
      9 N          64.6333   85.6963   14.6539 N.ar    1  UNL1       -0.2394
     10 C          63.9153   85.5141   13.3497 C.ar    1  UNL1        0.1316
     11 H          64.0431   82.2032   12.1048 H       1  UNL1        0.1438
     12 H          64.7530   82.7491   13.5559 H       1  UNL1        0.1438
     13 C          61.8231   87.0372   10.4569 C.2     1  UNL1        0.0666
     14 C          62.1369   88.4955   10.3005 C.2     1  UNL1        0.0152
     15 C          61.3526   89.3321    9.3335 C.2     1  UNL1        0.0041
     16 C          60.2545   88.7101    8.5228 C.2     1  UNL1        0.0367
     17 C          59.3178   89.2786    7.4983 C.2     1  UNL1        0.1233
     18 N          58.4251   88.1716    7.0215 N.2     1  UNL1       -0.1467
     19 N          58.8100   86.9188    7.7512 N.2     1  UNL1       -0.1519
     20 C          59.9406   87.2517    8.6791 C.2     1  UNL1        0.0880
     21 C          60.7249   86.4152    9.6461 C.3     1  UNL1        0.0934
     22 C          64.0192   89.5610   15.3147 C.ar    1  UNL1        0.0814
     23 C          63.2631   89.9628   16.5463 C.ar    1  UNL1        0.0412
     24 C          63.5927   91.3951   16.8459 C.ar    1  UNL1        0.1217
     25 N          64.5525   91.8786   15.7994 N.ar    1  UNL1       -0.1674
     26 N          64.8161   90.7451   14.8531 N.ar    1  UNL1       -0.2463
     27 C          65.7182   90.7880   13.6555 C.3     1  UNL1        0.1546
     28 C          65.7021   91.9812   12.7467 C.ar    1  UNL1        0.0127
     29 C          64.9648   91.9204   11.4419 C.ar    1  UNL1       -0.0006
     30 C          64.9488   93.1137   10.5332 C.ar    1  UNL1        0.0112
     31 C          65.6700   94.3678   10.9293 C.ar    1  UNL1        0.0585
     32 CL         65.6539   95.5611   10.0205 Cl      1  UNL1       -0.0822
     33 C          66.4074   94.4287   12.2342 C.ar    1  UNL1        0.0225
     34 C          66.4234   93.2354   13.1429 C.ar    1  UNL1        0.0564
     35 CL         67.1607   93.2962   14.4477 Cl      1  UNL1       -0.0825
@<TRIPOS>BOND
     1     1     2    1
     2     2     3   ar
     3     3     4   ar
     4     4    13    1
     5    13    14    2
     6    14    15    1
     7    15    16    2
     8    16    17    1
     9    17    18    2
    10    18    19    1
    11    19    20    2
    12    20    21    1
    13     4     5   ar
    14     5     6   ar
    15     6     7   ar
    16     7    22    1
    17    22    23   ar
    18    23    24   ar
    19    24    25   ar
    20    25    26   ar
    21    26    27    1
    22    27    28    1
    23    28    29   ar
    24    29    30   ar
    25    30    31   ar
    26    31    32    1
    27    31    33   ar
    28    33    34   ar
    29    34    35    1
    30     7     8   ar
    31     8     9   ar
    32     9    10   ar
    33    10     2   ar
    34    21    13    1
    35    10     5   ar
    36    20    16    1
    37    26    22   ar
    38    34    28   ar
    39     1    11    1
    40     1    12    1
