@<TRIPOS>MOLECULE
*****
 31 34 0 0 0
SMALL
GASTEIGER

@<TRIPOS>ATOM
      1 C          65.5730   91.8828   12.7883 C.3     1  UNL1        0.0795
      2 C          65.8797   92.8361   11.6715 C.3     1  UNL1        0.0178
      3 C          64.9942   92.8838   10.4617 C.3     1  UNL1        0.0029
      4 C          63.8021   91.9783   10.3687 C.3     1  UNL1        0.0178
      5 C          63.4954   91.0250   11.4854 C.3     1  UNL1        0.0799
      6 N          64.3809   90.9773   12.6952 N.3     1  UNL1       -0.1583
      7 C          62.3031   90.1195   11.3924 C.3     1  UNL1        0.0237
      8 C          60.9482   89.5398   11.6718 C.3     1  UNL1        0.0019
      9 C          61.4203   90.7435   12.4323 C.3     1  UNL1        0.0019
     10 C          62.7720   89.1810   10.3203 C.3     1  UNL1        0.0866
     11 C          62.0437   87.8916   10.0813 C.2     1  UNL1        0.2258
     12 O          62.4635   86.6476   10.8067 O.2     1  UNL1       -0.2749
     13 N          60.8958   87.8462    9.1168 N.am    1  UNL1       -0.2767
     14 C          60.4761   89.0902    8.3914 C.3     1  UNL1        0.1105
     15 C          59.3281   89.0448    7.4269 C.3     1  UNL1        0.0904
     16 N          58.6000   87.7555    7.1879 N.3     1  UNL1       -0.2946
     17 C          59.0196   86.5114    7.9132 C.3     1  UNL1        0.0904
     18 C          60.1676   86.5568    8.8778 C.3     1  UNL1        0.1105
     19 H          58.6762   87.5548    6.1907 H       1  UNL1        0.1233
     20 S          64.0741   90.0240   13.8121 S.O2    1  UNL1        0.0632
     21 O          63.6581   91.1746   14.6798 O.2     1  UNL1       -0.1528
     22 O          64.3706   88.8117   13.2974 O.2     1  UNL1       -0.1528
     23 C          63.7674   89.0708   14.9288 C.ar    1  UNL1        0.1222
     24 C          63.1268   89.5730   16.1889 C.ar    1  UNL1        0.0208
     25 C          62.8201   88.6197   17.3057 C.ar    1  UNL1        0.0128
     26 C          63.1538   87.1644   17.1625 C.ar    1  UNL1        0.0578
     27 CL         62.8471   86.2112   18.2793 Cl      1  UNL1       -0.0822
     28 C          63.7943   86.6622   15.9025 C.ar    1  UNL1        0.0128
     29 C          64.1011   87.6154   14.7857 C.ar    1  UNL1        0.0208
     30 C          66.7186   93.0841   14.7869 C.3     1  UNL1        0.0015
     31 C          66.4585   91.8351   13.9981 C.3     1  UNL1        0.0177
@<TRIPOS>BOND
     1    30    31    1
     2     1    31    1
     3     1     2    1
     4     2     3    1
     5     3     4    1
     6     4     5    1
     7     5     7    1
     8     7    10    1
     9    10    11    1
    10    11    12    2
    11    11    13   am
    12    13    14    1
    13    14    15    1
    14    15    16    1
    15    16    17    1
    16    17    18    1
    17     7     8    1
    18     8     9    1
    19     5     6    1
    20     6    20    1
    21    20    21    2
    22    20    22    2
    23    20    23    1
    24    23    24   ar
    25    24    25   ar
    26    25    26   ar
    27    26    27    1
    28    26    28   ar
    29    28    29   ar
    30     6     1    1
    31    29    23   ar
    32     9     7    1
    33    18    13    1
    34    16    19    1
@<TRIPOS>MOLECULE
*****
 31 34 0 0 0
SMALL
GASTEIGER

@<TRIPOS>ATOM
      1 C          60.5143   86.7115    8.1100 C.3     1  UNL1        0.0795
      2 C          59.7752   87.5319    7.0948 C.3     1  UNL1        0.0178
      3 C          59.4558   88.9693    7.3808 C.3     1  UNL1        0.0029
      4 C          59.8755   89.5864    8.6819 C.3     1  UNL1        0.0178
      5 C          60.6146   88.7660    9.6971 C.3     1  UNL1        0.0799
      6 N          60.9340   87.3286    9.4112 N.3     1  UNL1       -0.1583
      7 C          61.0344   89.3830   10.9984 C.3     1  UNL1        0.0237
      8 C          60.9373   89.9944   12.3647 C.3     1  UNL1        0.0019
      9 C          59.6919   89.5811   11.6378 C.3     1  UNL1        0.0019
     10 C          62.5225   89.3992   10.8108 C.3     1  UNL1        0.0866
     11 C          63.2801   90.6879   10.9351 C.2     1  UNL1        0.2258
     12 O          63.2114   91.7071    9.8367 O.2     1  UNL1       -0.2749
     13 N          64.1063   90.9573   12.1577 N.am    1  UNL1       -0.2767
     14 C          64.1750   89.9380   13.2560 C.3     1  UNL1        0.1105
     15 C          65.0012   90.2074   14.4786 C.3     1  UNL1        0.0904
     16 N          65.7588   91.4960   14.6029 N.3     1  UNL1       -0.2946
     17 C          65.6902   92.5153   13.5046 C.3     1  UNL1        0.0904
     18 C          64.8639   92.2459   12.2819 C.3     1  UNL1        0.1105
     19 H          66.7422   91.2497   14.7151 H       1  UNL1        0.1233
     20 S          61.6731   86.5082   10.4264 S.O2    1  UNL1        0.0632
     21 O          62.8470   86.4160    9.4973 O.2     1  UNL1       -0.1528
     22 O          60.8089   86.4100   11.4589 O.2     1  UNL1       -0.1528
     23 C          62.4122   85.6878   11.4416 C.ar    1  UNL1        0.1222
     24 C          62.5154   84.2008   11.2731 C.ar    1  UNL1        0.0208
     25 C          63.2545   83.3805   12.2883 C.ar    1  UNL1        0.0128
     26 C          63.8905   84.0470   13.4721 C.ar    1  UNL1        0.0578
     27 CL         64.6296   83.2266   14.4872 Cl      1  UNL1       -0.0822
     28 C          63.7873   85.5339   13.6406 C.ar    1  UNL1        0.0128
     29 C          63.0482   86.3543   12.6254 C.ar    1  UNL1        0.0208
     30 C          61.6082   84.9085    6.5926 C.3     1  UNL1        0.0015
     31 C          60.8337   85.2741    7.8240 C.3     1  UNL1        0.0177
@<TRIPOS>BOND
     1    30    31    1
     2     1    31    1
     3     1     2    1
     4     2     3    1
     5     3     4    1
     6     4     5    1
     7     5     7    1
     8     7    10    1
     9    10    11    1
    10    11    12    2
    11    11    13   am
    12    13    14    1
    13    14    15    1
    14    15    16    1
    15    16    17    1
    16    17    18    1
    17     7     8    1
    18     8     9    1
    19     5     6    1
    20     6    20    1
    21    20    21    2
    22    20    22    2
    23    20    23    1
    24    23    24   ar
    25    24    25   ar
    26    25    26   ar
    27    26    27    1
    28    26    28   ar
    29    28    29   ar
    30     6     1    1
    31    29    23   ar
    32     9     7    1
    33    18    13    1
    34    16    19    1
@<TRIPOS>MOLECULE
*****
 31 34 0 0 0
SMALL
GASTEIGER

@<TRIPOS>ATOM
      1 C          63.1099   85.7540   12.5613 C.3     1  UNL1        0.0795
      2 C          63.9420   85.3842   13.7532 C.3     1  UNL1        0.0178
      3 C          64.5042   86.4574   14.6376 C.3     1  UNL1        0.0029
      4 C          64.2342   87.9005   14.3300 C.3     1  UNL1        0.0178
      5 C          63.4021   88.2703   13.1381 C.3     1  UNL1        0.0799
      6 N          62.8400   87.1970   12.2537 N.3     1  UNL1       -0.1583
      7 C          63.1321   89.7134   12.8305 C.3     1  UNL1        0.0237
      8 C          62.3756   90.9885   12.6026 C.3     1  UNL1        0.0019
      9 C          61.6372   89.7307   12.9534 C.3     1  UNL1        0.0019
     10 C          64.5332   90.1972   12.6007 C.3     1  UNL1        0.0866
     11 C          64.9983   91.4756   13.2327 C.2     1  UNL1        0.2258
     12 O          64.8795   91.6657   14.7158 O.2     1  UNL1       -0.2749
     13 N          65.5822   92.5640   12.3815 N.am    1  UNL1       -0.2767
     14 C          65.7010   92.3740   10.8984 C.3     1  UNL1        0.1105
     15 C          66.2850   93.4624   10.0472 C.3     1  UNL1        0.0904
     16 N          66.7500   94.7407   10.6791 N.3     1  UNL1       -0.2946
     17 C          66.6312   94.9308   12.1622 C.3     1  UNL1        0.0904
     18 C          66.0473   93.8424   13.0135 C.3     1  UNL1        0.1105
     19 H          66.2202   95.4949   10.2422 H       1  UNL1        0.1233
     20 S          62.0079   87.5669   11.0617 S.O2    1  UNL1        0.0632
     21 O          60.7817   87.0576   11.7597 O.2     1  UNL1       -0.1528
     22 O          62.8974   88.0922   10.1926 O.2     1  UNL1       -0.1528
     23 C          61.1757   87.9368    9.8698 C.ar    1  UNL1        0.1222
     24 C          60.5625   86.8628    9.0208 C.ar    1  UNL1        0.0208
     25 C          59.7304   87.2327    7.8288 C.ar    1  UNL1        0.0128
     26 C          59.5114   88.6764    7.4858 C.ar    1  UNL1        0.0578
     27 CL         58.6793   89.0462    6.2939 Cl      1  UNL1       -0.0822
     28 C          60.1246   89.7503    8.3348 C.ar    1  UNL1        0.0128
     29 C          60.9568   89.3805    9.5268 C.ar    1  UNL1        0.0208
     30 C          63.4707   83.7471   10.9513 C.3     1  UNL1        0.0015
     31 C          62.5478   84.6807   11.6769 C.3     1  UNL1        0.0177
@<TRIPOS>BOND
     1    30    31    1
     2     1    31    1
     3     1     2    1
     4     2     3    1
     5     3     4    1
     6     4     5    1
     7     5     7    1
     8     7    10    1
     9    10    11    1
    10    11    12    2
    11    11    13   am
    12    13    14    1
    13    14    15    1
    14    15    16    1
    15    16    17    1
    16    17    18    1
    17     7     8    1
    18     8     9    1
    19     5     6    1
    20     6    20    1
    21    20    21    2
    22    20    22    2
    23    20    23    1
    24    23    24   ar
    25    24    25   ar
    26    25    26   ar
    27    26    27    1
    28    26    28   ar
    29    28    29   ar
    30     6     1    1
    31    29    23   ar
    32     9     7    1
    33    18    13    1
    34    16    19    1
@<TRIPOS>MOLECULE
*****
 31 34 0 0 0
SMALL
GASTEIGER

@<TRIPOS>ATOM
      1 C          64.5566   91.5510   15.7942 C.3     1  UNL1        0.0795
      2 C          65.3415   92.2340   16.8747 C.3     1  UNL1        0.0178
      3 C          66.6113   92.9572   16.5363 C.3     1  UNL1        0.0029
      4 C          67.0963   92.9974   15.1175 C.3     1  UNL1        0.0178
      5 C          66.3114   92.3144   14.0370 C.3     1  UNL1        0.0799
      6 N          65.0416   91.5912   14.3754 N.3     1  UNL1       -0.1583
      7 C          66.7964   92.3546   12.6181 C.3     1  UNL1        0.0237
      8 C          67.6287   92.0652   11.4042 C.3     1  UNL1        0.0019
      9 C          67.9652   91.4195   12.7157 C.3     1  UNL1        0.0019
     10 C          65.7960   93.3037   12.0278 C.3     1  UNL1        0.0866
     11 C          66.1947   94.7159   11.7169 C.2     1  UNL1        0.2258
     12 O          66.0714   95.7788   12.7682 O.2     1  UNL1       -0.2749
     13 N          66.7167   95.0653   10.3548 N.am    1  UNL1       -0.2767
     14 C          66.8400   94.0024    9.3035 C.3     1  UNL1        0.1105
     15 C          67.3621   94.3518    7.9414 C.3     1  UNL1        0.0904
     16 N          67.7608   95.7640    7.6305 N.3     1  UNL1       -0.2946
     17 C          67.6375   96.8269    8.6817 C.3     1  UNL1        0.0904
     18 C          67.1155   96.4775   10.0439 C.3     1  UNL1        0.1105
     19 H          67.1900   96.0639    6.8401 H       1  UNL1        0.1233
     20 S          64.2567   90.9082   13.2948 S.O2    1  UNL1        0.0632
     21 O          64.9242   89.6079   13.6319 O.2     1  UNL1       -0.1528
     22 O          63.5029   91.8950   12.7652 O.2     1  UNL1       -0.1528
     23 C          63.4719   90.2252   12.2143 C.ar    1  UNL1        0.1222
     24 C          63.0594   90.9882   10.9905 C.ar    1  UNL1        0.0208
     25 C          62.2746   90.3052    9.9100 C.ar    1  UNL1        0.0128
     26 C          61.9022   88.8592   10.0532 C.ar    1  UNL1        0.0578
     27 CL         61.1174   88.1762    8.9727 Cl      1  UNL1       -0.0822
     28 C          62.3147   88.0962   11.2770 C.ar    1  UNL1        0.0128
     29 C          63.0996   88.7792   12.3576 C.ar    1  UNL1        0.0208
     30 C          63.3432   89.4596   16.7447 C.3     1  UNL1        0.0015
     31 C          63.2868   90.8278   16.1326 C.3     1  UNL1        0.0177
@<TRIPOS>BOND
     1    30    31    1
     2     1    31    1
     3     1     2    1
     4     2     3    1
     5     3     4    1
     6     4     5    1
     7     5     7    1
     8     7    10    1
     9    10    11    1
    10    11    12    2
    11    11    13   am
    12    13    14    1
    13    14    15    1
    14    15    16    1
    15    16    17    1
    16    17    18    1
    17     7     8    1
    18     8     9    1
    19     5     6    1
    20     6    20    1
    21    20    21    2
    22    20    22    2
    23    20    23    1
    24    23    24   ar
    25    24    25   ar
    26    25    26   ar
    27    26    27    1
    28    26    28   ar
    29    28    29   ar
    30     6     1    1
    31    29    23   ar
    32     9     7    1
    33    18    13    1
    34    16    19    1
@<TRIPOS>MOLECULE
*****
 31 34 0 0 0
SMALL
GASTEIGER

@<TRIPOS>ATOM
      1 C          59.9178   88.7744    9.1919 C.3     1  UNL1        0.0795
      2 C          58.9800   88.1565    8.1976 C.3     1  UNL1        0.0178
      3 C          59.2042   86.7494    7.7290 C.3     1  UNL1        0.0029
      4 C          60.3663   85.9600    8.2547 C.3     1  UNL1        0.0178
      5 C          61.3042   86.5779    9.2490 C.3     1  UNL1        0.0799
      6 N          61.0799   87.9850    9.7176 N.3     1  UNL1       -0.1583
      7 C          62.4664   85.7885    9.7747 C.3     1  UNL1        0.0237
      8 C          63.8029   85.1092    9.8220 C.3     1  UNL1        0.0019
      9 C          63.3721   85.8311    8.5797 C.3     1  UNL1        0.0019
     10 C          61.9643   85.4719   11.1522 C.3     1  UNL1        0.0866
     11 C          62.3635   84.1892   11.8195 C.2     1  UNL1        0.2258
     12 O          62.0460   82.8751   11.1695 O.2     1  UNL1       -0.2749
     13 N          63.0803   84.2205   13.1368 N.am    1  UNL1       -0.2767
     14 C          63.3978   85.5345   13.7868 C.3     1  UNL1        0.1105
     15 C          64.1145   85.5658   15.1042 C.3     1  UNL1        0.0904
     16 N          64.5138   84.2832   15.7715 N.3     1  UNL1       -0.2946
     17 C          64.1963   82.9692   15.1215 C.3     1  UNL1        0.0904
     18 C          63.4795   82.9378   13.8041 C.3     1  UNL1        0.1105
     19 H          64.0640   84.2752   16.6869 H       1  UNL1        0.1233
     20 S          62.0179   88.6028   10.7120 S.O2    1  UNL1        0.0632
     21 O          62.7956   89.2261    9.5910 O.2     1  UNL1       -0.1528
     22 O          61.5428   88.1931   11.9074 O.2     1  UNL1       -0.1528
     23 C          62.9558   89.2206   11.7062 C.ar    1  UNL1        0.1222
     24 C          63.4232   88.4268   12.8901 C.ar    1  UNL1        0.0208
     25 C          64.3611   89.0446   13.8844 C.ar    1  UNL1        0.0128
     26 C          64.8316   90.4562   13.6949 C.ar    1  UNL1        0.0578
     27 CL         65.7695   91.0740   14.6891 Cl      1  UNL1       -0.0822
     28 C          64.3643   91.2501   12.5111 C.ar    1  UNL1        0.0128
     29 C          63.4263   90.6323   11.5167 C.ar    1  UNL1        0.0208
     30 C          59.3992   90.4526   11.1062 C.3     1  UNL1        0.0015
     31 C          59.6935   90.1815    9.6606 C.3     1  UNL1        0.0177
@<TRIPOS>BOND
     1    30    31    1
     2     1    31    1
     3     1     2    1
     4     2     3    1
     5     3     4    1
     6     4     5    1
     7     5     7    1
     8     7    10    1
     9    10    11    1
    10    11    12    2
    11    11    13   am
    12    13    14    1
    13    14    15    1
    14    15    16    1
    15    16    17    1
    16    17    18    1
    17     7     8    1
    18     8     9    1
    19     5     6    1
    20     6    20    1
    21    20    21    2
    22    20    22    2
    23    20    23    1
    24    23    24   ar
    25    24    25   ar
    26    25    26   ar
    27    26    27    1
    28    26    28   ar
    29    28    29   ar
    30     6     1    1
    31    29    23   ar
    32     9     7    1
    33    18    13    1
    34    16    19    1
@<TRIPOS>MOLECULE
*****
 31 34 0 0 0
SMALL
GASTEIGER

@<TRIPOS>ATOM
      1 C          59.9401   88.7746    9.0940 C.3     1  UNL1        0.0795
      2 C          59.0131   88.1499    8.0938 C.3     1  UNL1        0.0178
      3 C          59.2013   86.7179    7.6890 C.3     1  UNL1        0.0029
      4 C          60.3164   85.9105    8.2844 C.3     1  UNL1        0.0178
      5 C          61.2434   86.5352    9.2846 C.3     1  UNL1        0.0799
      6 N          61.0552   87.9672    9.6894 N.3     1  UNL1       -0.1583
      7 C          62.3586   85.7278    9.8801 C.3     1  UNL1        0.0237
      8 C          63.6943   85.0607   10.0249 C.3     1  UNL1        0.0019
      9 C          63.3808   85.8513    8.7892 C.3     1  UNL1        0.0019
     10 C          61.7237   85.3240   11.1777 C.3     1  UNL1        0.0866
     11 C          62.5831   84.9406   12.3458 C.2     1  UNL1        0.2258
     12 O          63.1676   86.0038   13.2278 O.2     1  UNL1       -0.2749
     13 N          62.8580   83.4941   12.6319 N.am    1  UNL1       -0.2767
     14 C          62.2735   82.4309   11.7498 C.3     1  UNL1        0.1105
     15 C          62.5484   80.9842   12.0359 C.3     1  UNL1        0.0904
     16 N          63.4077   80.6008   13.2040 N.3     1  UNL1       -0.2946
     17 C          63.9922   81.6640   14.0860 C.3     1  UNL1        0.0904
     18 C          63.7174   83.1106   13.8000 C.3     1  UNL1        0.1105
     19 H          64.1910   80.0651   12.8300 H       1  UNL1        0.1233
     20 S          61.9823   88.5919   10.6897 S.O2    1  UNL1        0.0632
     21 O          61.1117   88.0962   11.8060 O.2     1  UNL1       -0.1528
     22 O          62.9444   89.1607    9.9325 O.2     1  UNL1       -0.1528
     23 C          62.9093   89.2165   11.6899 C.ar    1  UNL1        0.1222
     24 C          63.3551   90.6379   11.5139 C.ar    1  UNL1        0.0208
     25 C          64.2821   91.2625   12.5141 C.ar    1  UNL1        0.0128
     26 C          64.7633   90.4658   13.6904 C.ar    1  UNL1        0.0578
     27 CL         65.6903   91.0904   14.6906 Cl      1  UNL1       -0.0822
     28 C          64.3175   89.0445   13.8664 C.ar    1  UNL1        0.0128
     29 C          63.3905   88.4198   12.8662 C.ar    1  UNL1        0.0208
     30 C          59.4234   90.5467   10.9223 C.3     1  UNL1        0.0015
     31 C          59.7519   90.2066    9.4988 C.3     1  UNL1        0.0177
@<TRIPOS>BOND
     1    30    31    1
     2     1    31    1
     3     1     2    1
     4     2     3    1
     5     3     4    1
     6     4     5    1
     7     5     7    1
     8     7    10    1
     9    10    11    1
    10    11    12    2
    11    11    13   am
    12    13    14    1
    13    14    15    1
    14    15    16    1
    15    16    17    1
    16    17    18    1
    17     7     8    1
    18     8     9    1
    19     5     6    1
    20     6    20    1
    21    20    21    2
    22    20    22    2
    23    20    23    1
    24    23    24   ar
    25    24    25   ar
    26    25    26   ar
    27    26    27    1
    28    26    28   ar
    29    28    29   ar
    30     6     1    1
    31    29    23   ar
    32     9     7    1
    33    18    13    1
    34    16    19    1
@<TRIPOS>MOLECULE
*****
 31 34 0 0 0
SMALL
GASTEIGER

@<TRIPOS>ATOM
      1 C          65.3838   91.7015   12.8174 C.3     1  UNL1        0.0795
      2 C          65.6634   92.5752   11.6306 C.3     1  UNL1        0.0178
      3 C          64.7734   92.5099   10.4249 C.3     1  UNL1        0.0029
      4 C          63.6038   91.5710   10.4060 C.3     1  UNL1        0.0178
      5 C          63.3242   90.6974   11.5928 C.3     1  UNL1        0.0799
      6 N          64.2142   90.7626   12.7984 N.3     1  UNL1       -0.1583
      7 C          62.1545   89.7584   11.5739 C.3     1  UNL1        0.0237
      8 C          60.7370   89.2739   11.4972 C.3     1  UNL1        0.0019
      9 C          61.0344   90.7410   11.4006 C.3     1  UNL1        0.0019
     10 C          62.8684   88.4498   11.7407 C.3     1  UNL1        0.0866
     11 C          62.5347   87.2939   10.8448 C.2     1  UNL1        0.2258
     12 O          62.0390   87.5438    9.4513 O.2     1  UNL1       -0.2749
     13 N          62.6966   85.8882   11.3424 N.am    1  UNL1       -0.2767
     14 C          63.1923   85.6383   12.7359 C.3     1  UNL1        0.1105
     15 C          63.3542   84.2324   13.2335 C.3     1  UNL1        0.0904
     16 N          63.0205   83.0766   12.3377 N.3     1  UNL1       -0.2946
     17 C          62.5248   83.3265   10.9442 C.3     1  UNL1        0.0904
     18 C          62.3628   84.7323   10.4465 C.3     1  UNL1        0.1105
     19 H          62.3000   82.5337   12.8136 H       1  UNL1        0.1233
     20 S          63.9345   89.8889   13.9853 S.O2    1  UNL1        0.0632
     21 O          63.0948   90.9761   14.5877 O.2     1  UNL1       -0.1528
     22 O          64.6069   88.7493   13.7176 O.2     1  UNL1       -0.1528
     23 C          63.6548   89.0153   15.1720 C.ar    1  UNL1        0.1222
     24 C          63.0999   89.6144   16.4303 C.ar    1  UNL1        0.0208
     25 C          62.8202   88.7408   17.6171 C.ar    1  UNL1        0.0128
     26 C          63.0954   87.2680   17.5457 C.ar    1  UNL1        0.0578
     27 CL         62.8157   86.3943   18.7325 Cl      1  UNL1       -0.0822
     28 C          63.6503   86.6688   16.2875 C.ar    1  UNL1        0.0128
     29 C          63.9300   87.5425   15.1007 C.ar    1  UNL1        0.0208
     30 C          67.7541   91.9401   13.8540 C.3     1  UNL1        0.0015
     31 C          66.2738   91.7668   14.0230 C.3     1  UNL1        0.0177
@<TRIPOS>BOND
     1    30    31    1
     2     1    31    1
     3     1     2    1
     4     2     3    1
     5     3     4    1
     6     4     5    1
     7     5     7    1
     8     7    10    1
     9    10    11    1
    10    11    12    2
    11    11    13   am
    12    13    14    1
    13    14    15    1
    14    15    16    1
    15    16    17    1
    16    17    18    1
    17     7     8    1
    18     8     9    1
    19     5     6    1
    20     6    20    1
    21    20    21    2
    22    20    22    2
    23    20    23    1
    24    23    24   ar
    25    24    25   ar
    26    25    26   ar
    27    26    27    1
    28    26    28   ar
    29    28    29   ar
    30     6     1    1
    31    29    23   ar
    32     9     7    1
    33    18    13    1
    34    16    19    1
@<TRIPOS>MOLECULE
*****
 31 34 0 0 0
SMALL
GASTEIGER

@<TRIPOS>ATOM
      1 C          64.9612   91.9072   12.5389 C.3     1  UNL1        0.0795
      2 C          66.0234   92.6061   13.3347 C.3     1  UNL1        0.0178
      3 C          66.3679   92.1233   14.7125 C.3     1  UNL1        0.0029
      4 C          65.6503   90.9417   15.2944 C.3     1  UNL1        0.0178
      5 C          64.5882   90.2428   14.4986 C.3     1  UNL1        0.0799
      6 N          64.2436   90.7256   13.1208 N.3     1  UNL1       -0.1583
      7 C          63.8705   89.0611   15.0805 C.3     1  UNL1        0.0237
      8 C          63.0020   88.2500   15.9959 C.3     1  UNL1        0.0019
      9 C          63.1869   89.7180   16.2430 C.3     1  UNL1        0.0019
     10 C          64.3049   87.9938   14.1201 C.3     1  UNL1        0.0866
     11 C          64.3230   86.5577   14.5529 C.2     1  UNL1        0.2258
     12 O          64.9522   86.1762   15.8600 O.2     1  UNL1       -0.2749
     13 N          63.7120   85.5032   13.6786 N.am    1  UNL1       -0.2767
     14 C          63.0828   85.8847   12.3714 C.3     1  UNL1        0.1105
     15 C          62.4718   84.8300   11.4971 C.3     1  UNL1        0.0904
     16 N          62.4899   83.3940   11.9298 N.3     1  UNL1       -0.2946
     17 C          63.1190   83.0124   13.2369 C.3     1  UNL1        0.0904
     18 C          63.7301   84.0670   14.1113 C.3     1  UNL1        0.1105
     19 H          62.9817   82.8738   11.2033 H       1  UNL1        0.1233
     20 S          63.1814   90.0266   12.3250 S.O2    1  UNL1        0.0632
     21 O          62.1243   90.6581   13.1815 O.2     1  UNL1       -0.1528
     22 O          63.8733   89.3230   11.4037 O.2     1  UNL1       -0.1528
     23 C          62.1192   89.3278   11.5292 C.ar    1  UNL1        0.1222
     24 C          62.4728   88.6505   10.2383 C.ar    1  UNL1        0.0208
     25 C          61.4106   87.9516    9.4426 C.ar    1  UNL1        0.0128
     26 C          59.9949   87.9299    9.9376 C.ar    1  UNL1        0.0578
     27 CL         58.9327   87.2311    9.1419 Cl      1  UNL1       -0.0822
     28 C          59.6412   88.6072   11.2284 C.ar    1  UNL1        0.0128
     29 C          60.7035   89.3061   12.0243 C.ar    1  UNL1        0.0208
     30 C          65.5519   93.3093   10.4329 C.3     1  UNL1        0.0015
     31 C          64.6167   92.3900   11.1611 C.3     1  UNL1        0.0177
@<TRIPOS>BOND
     1    30    31    1
     2     1    31    1
     3     1     2    1
     4     2     3    1
     5     3     4    1
     6     4     5    1
     7     5     7    1
     8     7    10    1
     9    10    11    1
    10    11    12    2
    11    11    13   am
    12    13    14    1
    13    14    15    1
    14    15    16    1
    15    16    17    1
    16    17    18    1
    17     7     8    1
    18     8     9    1
    19     5     6    1
    20     6    20    1
    21    20    21    2
    22    20    22    2
    23    20    23    1
    24    23    24   ar
    25    24    25   ar
    26    25    26   ar
    27    26    27    1
    28    26    28   ar
    29    28    29   ar
    30     6     1    1
    31    29    23   ar
    32     9     7    1
    33    18    13    1
    34    16    19    1
@<TRIPOS>MOLECULE
*****
 31 34 0 0 0
SMALL
GASTEIGER

@<TRIPOS>ATOM
      1 C          64.1392   86.7009   14.5555 C.3     1  UNL1        0.0795
      2 C          64.4205   88.1737   14.5954 C.3     1  UNL1        0.0178
      3 C          63.9744   89.0534   13.4653 C.3     1  UNL1        0.0029
      4 C          63.2469   88.4603   12.2953 C.3     1  UNL1        0.0178
      5 C          62.9656   86.9875   12.2554 C.3     1  UNL1        0.0799
      6 N          63.4117   86.1078   13.3855 N.3     1  UNL1       -0.1583
      7 C          62.2380   86.3943   11.0853 C.3     1  UNL1        0.0237
      8 C          61.9793   85.5834    9.8502 C.3     1  UNL1        0.0019
      9 C          63.3352   85.5613   10.4915 C.3     1  UNL1        0.0019
     10 C          60.8883   87.0212   11.2729 C.3     1  UNL1        0.0866
     11 C          60.5674   88.3247   10.6036 C.2     1  UNL1        0.2258
     12 O          60.7509   89.6146   11.3469 O.2     1  UNL1       -0.2749
     13 N          60.0629   88.3383    9.1911 N.am    1  UNL1       -0.2767
     14 C          59.8795   87.0484    8.4478 C.3     1  UNL1        0.1105
     15 C          59.3750   87.0620    7.0351 C.3     1  UNL1        0.0904
     16 N          59.0541   88.3654    6.3659 N.3     1  UNL1       -0.2946
     17 C          59.2375   89.6553    7.1091 C.3     1  UNL1        0.0904
     18 C          59.7420   89.6418    8.5217 C.3     1  UNL1        0.1105
     19 H          58.0729   88.3212    6.0905 H       1  UNL1        0.1233
     20 S          63.1303   84.6349   13.3455 S.O2    1  UNL1        0.0632
     21 O          61.7983   84.8719   13.9933 O.2     1  UNL1       -0.1528
     22 O          64.2323   84.1073   12.7712 O.2     1  UNL1       -0.1528
     23 C          62.8489   83.1621   13.3056 C.ar    1  UNL1        0.1222
     24 C          62.0556   82.5200   14.4049 C.ar    1  UNL1        0.0208
     25 C          61.7742   81.0472   14.3650 C.ar    1  UNL1        0.0128
     26 C          62.2861   80.2165   13.2258 C.ar    1  UNL1        0.0578
     27 CL         62.0047   78.7437   13.1859 Cl      1  UNL1       -0.0822
     28 C          63.0794   80.8585   12.1266 C.ar    1  UNL1        0.0128
     29 C          63.3608   82.3313   12.1664 C.ar    1  UNL1        0.0208
     30 C          63.6869   85.6045   16.8670 C.3     1  UNL1        0.0015
     31 C          64.5853   85.8213   15.6856 C.3     1  UNL1        0.0177
@<TRIPOS>BOND
     1    30    31    1
     2     1    31    1
     3     1     2    1
     4     2     3    1
     5     3     4    1
     6     4     5    1
     7     5     7    1
     8     7    10    1
     9    10    11    1
    10    11    12    2
    11    11    13   am
    12    13    14    1
    13    14    15    1
    14    15    16    1
    15    16    17    1
    16    17    18    1
    17     7     8    1
    18     8     9    1
    19     5     6    1
    20     6    20    1
    21    20    21    2
    22    20    22    2
    23    20    23    1
    24    23    24   ar
    25    24    25   ar
    26    25    26   ar
    27    26    27    1
    28    26    28   ar
    29    28    29   ar
    30     6     1    1
    31    29    23   ar
    32     9     7    1
    33    18    13    1
    34    16    19    1
