@<TRIPOS>MOLECULE
*****
 24 27 0 0 0
SMALL
GASTEIGER

@<TRIPOS>ATOM
      1 C          63.2304   84.6595   12.8297 C.3     1  UNL1        0.0409
      2 C          63.3471   83.1774   13.0290 C.3     1  UNL1        0.0707
      3 N          64.0781   82.6363   14.2218 N.3     1  UNL1       -0.2974
      4 C          64.6925   83.5774   15.2153 C.3     1  UNL1        0.0689
      5 C          64.5759   85.0594   15.0159 C.3     1  UNL1        0.0212
      6 C          63.8449   85.6005   13.8231 C.3     1  UNL1        0.0234
      7 C          63.1138   86.1416   12.6303 C.3     1  UNL1        0.0078
      8 H          64.8334   82.0516   13.8639 H       1  UNL1        0.1232
      9 C          63.5575   84.2015   13.3647 C.ar    1  UNL1       -0.0218
     10 C          64.4061   83.5719   12.3000 C.ar    1  UNL1       -0.0034
     11 C          64.1188   82.1729   11.8416 C.ar    1  UNL1        0.0119
     12 C          62.9827   81.4035   12.4477 C.ar    1  UNL1        0.0682
     13 CL         62.6954   80.0045   11.9892 Cl      1  UNL1       -0.0814
     14 C          62.1341   82.0331   13.5123 C.ar    1  UNL1        0.0679
     15 CL         60.9980   81.2636   14.1184 Cl      1  UNL1       -0.0814
     16 C          62.4214   83.4321   13.9708 C.ar    1  UNL1        0.0080
     17 C          62.4537   84.4286   11.5674 C.3     1  UNL1        0.1286
     18 C          59.8574   88.8365   10.2596 C.3     1  UNL1        0.0540
     19 C          60.7348   87.6223   10.1848 C.ar    1  UNL1        0.0801
     20 C          61.5045   87.1635    8.9819 C.ar    1  UNL1        0.0308
     21 C          62.2421   85.9113    9.3533 C.ar    1  UNL1        0.0571
     22 C          63.1364   85.1141    8.4508 C.3     1  UNL1        0.0517
     23 N          61.9282   85.5962   10.7860 N.ar    1  UNL1       -0.2552
     24 N          60.9967   86.6536   11.2998 N.ar    1  UNL1       -0.1740
@<TRIPOS>BOND
     1    18    19    1
     2    19    20   ar
     3    20    21   ar
     4    21    22    1
     5    21    23   ar
     6    23    17    1
     7    17     1    1
     8     1     2    1
     9     2     3    1
    10     3     4    1
    11     4     5    1
    12     5     6    1
    13     6     9    1
    14     9    10   ar
    15    10    11   ar
    16    11    12   ar
    17    12    13    1
    18    12    14   ar
    19    14    15    1
    20    14    16   ar
    21     6     7    1
    22    23    24   ar
    23    24    19   ar
    24     6     1    1
    25    16     9   ar
    26     7     1    1
    27     3     8    1
@<TRIPOS>MOLECULE
*****
 24 27 0 0 0
SMALL
GASTEIGER

@<TRIPOS>ATOM
      1 C          62.8765   84.4934   11.4665 C.3     1  UNL1        0.0409
      2 C          63.1091   84.0889   12.8921 C.3     1  UNL1        0.0707
      3 N          64.0602   82.9732   13.2094 N.3     1  UNL1       -0.2974
      4 C          64.7786   82.2621   12.1012 C.3     1  UNL1        0.0689
      5 C          64.5460   82.6666   10.6757 C.3     1  UNL1        0.0212
      6 C          63.5950   83.7823   10.3583 C.3     1  UNL1        0.0234
      7 C          62.6439   84.8980   10.0409 C.3     1  UNL1        0.0078
      8 H          63.5266   82.2664   13.7155 H       1  UNL1        0.1232
      9 C          63.3145   83.9593   11.8212 C.ar    1  UNL1       -0.0218
     10 C          62.3209   83.0694   12.5074 C.ar    1  UNL1       -0.0034
     11 C          62.0404   83.2463   13.9702 C.ar    1  UNL1        0.0119
     12 C          62.7535   84.3132   14.7469 C.ar    1  UNL1        0.0682
     13 CL         62.4730   84.4902   16.2099 Cl      1  UNL1       -0.0814
     14 C          63.7471   85.2031   14.0608 C.ar    1  UNL1        0.0679
     15 CL         64.4602   86.2699   14.8375 Cl      1  UNL1       -0.0814
     16 C          64.0276   85.0261   12.5979 C.ar    1  UNL1        0.0080
     17 C          61.9127   85.5481   11.9231 C.3     1  UNL1        0.1286
     18 C          59.7648   88.4538    8.0729 C.3     1  UNL1        0.0540
     19 C          60.5918   88.0356    9.2522 C.ar    1  UNL1        0.0801
     20 C          61.5398   88.9096   10.0186 C.ar    1  UNL1        0.0308
     21 C          62.1501   88.0842   11.1125 C.ar    1  UNL1        0.0571
     22 C          63.1547   88.5595   12.1197 C.3     1  UNL1        0.0517
     23 N          61.5791   86.7000   11.0220 N.ar    1  UNL1       -0.2552
     24 N          60.6161   86.6700    9.8724 N.ar    1  UNL1       -0.1740
@<TRIPOS>BOND
     1    18    19    1
     2    19    20   ar
     3    20    21   ar
     4    21    22    1
     5    21    23   ar
     6    23    17    1
     7    17     1    1
     8     1     2    1
     9     2     3    1
    10     3     4    1
    11     4     5    1
    12     5     6    1
    13     6     9    1
    14     9    10   ar
    15    10    11   ar
    16    11    12   ar
    17    12    13    1
    18    12    14   ar
    19    14    15    1
    20    14    16   ar
    21     6     7    1
    22    23    24   ar
    23    24    19   ar
    24     6     1    1
    25    16     9   ar
    26     7     1    1
    27     3     8    1
@<TRIPOS>MOLECULE
*****
 24 27 0 0 0
SMALL
GASTEIGER

@<TRIPOS>ATOM
      1 C          62.0885   87.3948   11.1771 C.3     1  UNL1        0.0409
      2 C          61.1778   87.6126   10.0053 C.3     1  UNL1        0.0707
      3 N          61.1309   88.9514    9.3306 N.3     1  UNL1       -0.2974
      4 C          61.9946   90.0725    9.8278 C.3     1  UNL1        0.0689
      5 C          62.9053   89.8547   10.9996 C.3     1  UNL1        0.0212
      6 C          62.9522   88.5159   11.6742 C.3     1  UNL1        0.0234
      7 C          62.9992   87.1770   12.3490 C.3     1  UNL1        0.0078
      8 H          60.1656   89.2760    9.3873 H       1  UNL1        0.1232
      9 C          61.9278   87.9944   10.7107 C.ar    1  UNL1       -0.0218
     10 C          60.4802   88.3421   10.8940 C.ar    1  UNL1       -0.0034
     11 C          59.4557   87.8206    9.9305 C.ar    1  UNL1        0.0119
     12 C          59.8788   86.9514    8.7835 C.ar    1  UNL1        0.0682
     13 CL         58.8543   86.4300    7.8199 Cl      1  UNL1       -0.0814
     14 C          61.3263   86.6038    8.6001 C.ar    1  UNL1        0.0679
     15 CL         61.7494   85.7346    7.4531 Cl      1  UNL1       -0.0814
     16 C          62.3509   87.1253    9.5637 C.ar    1  UNL1        0.0080
     17 C          61.6170   85.9746   11.2796 C.3     1  UNL1        0.1286
     18 C          63.7763   83.1358   15.1731 C.3     1  UNL1        0.0540
     19 C          63.4329   83.6577   13.8095 C.ar    1  UNL1        0.0801
     20 C          63.9818   83.1525   12.5081 C.ar    1  UNL1        0.0308
     21 C          63.3684   83.9589   11.4020 C.ar    1  UNL1        0.0571
     22 C          63.6360   83.7912    9.9357 C.3     1  UNL1        0.0517
     23 N          62.4403   84.9625   12.0198 N.ar    1  UNL1       -0.2552
     24 N          62.4802   84.7763   13.5076 N.ar    1  UNL1       -0.1740
@<TRIPOS>BOND
     1    18    19    1
     2    19    20   ar
     3    20    21   ar
     4    21    22    1
     5    21    23   ar
     6    23    17    1
     7    17     1    1
     8     1     2    1
     9     2     3    1
    10     3     4    1
    11     4     5    1
    12     5     6    1
    13     6     9    1
    14     9    10   ar
    15    10    11   ar
    16    11    12   ar
    17    12    13    1
    18    12    14   ar
    19    14    15    1
    20    14    16   ar
    21     6     7    1
    22    23    24   ar
    23    24    19   ar
    24     6     1    1
    25    16     9   ar
    26     7     1    1
    27     3     8    1
@<TRIPOS>MOLECULE
*****
 24 27 0 0 0
SMALL
GASTEIGER

@<TRIPOS>ATOM
      1 C          63.2815   83.1173   12.1762 C.3     1  UNL1        0.0409
      2 C          63.3351   83.4582   13.6359 C.3     1  UNL1        0.0707
      3 N          63.0327   82.4077   14.6630 N.3     1  UNL1       -0.2974
      4 C          62.6768   81.0163   14.2303 C.3     1  UNL1        0.0689
      5 C          62.6232   80.6753   12.7706 C.3     1  UNL1        0.0212
      6 C          62.9256   81.7259   11.7435 C.3     1  UNL1        0.0234
      7 C          63.2279   82.7764   10.7164 C.3     1  UNL1        0.0078
      8 H          62.2486   82.7537   15.2161 H       1  UNL1        0.1232
      9 C          63.1620   82.7260   12.8361 C.ar    1  UNL1       -0.0218
     10 C          62.0075   83.2431   13.6423 C.ar    1  UNL1       -0.0034
     11 C          62.2439   84.2432   14.7349 C.ar    1  UNL1        0.0119
     12 C          63.6348   84.7264   15.0214 C.ar    1  UNL1        0.0682
     13 CL         63.8711   85.7266   16.1140 Cl      1  UNL1       -0.0814
     14 C          64.7892   84.2094   14.2152 C.ar    1  UNL1        0.0679
     15 CL         66.1801   84.6925   14.5017 Cl      1  UNL1       -0.0814
     16 C          64.5528   83.2092   13.1226 C.ar    1  UNL1        0.0080
     17 C          63.6615   84.5272   11.8330 C.3     1  UNL1        0.1286
     18 C          59.7703   88.0334   11.1654 C.3     1  UNL1        0.0540
     19 C          60.8693   87.0515   10.8860 C.ar    1  UNL1        0.0801
     20 C          61.3576   86.6372    9.5296 C.ar    1  UNL1        0.0308
     21 C          62.4631   85.6411    9.7192 C.ar    1  UNL1        0.0571
     22 C          63.2376   84.9651    8.6270 C.3     1  UNL1        0.0517
     23 N          62.6579   85.4398   11.1929 N.ar    1  UNL1       -0.2552
     24 N          61.6729   86.3115   11.9140 N.ar    1  UNL1       -0.1740
@<TRIPOS>BOND
     1    18    19    1
     2    19    20   ar
     3    20    21   ar
     4    21    22    1
     5    21    23   ar
     6    23    17    1
     7    17     1    1
     8     1     2    1
     9     2     3    1
    10     3     4    1
    11     4     5    1
    12     5     6    1
    13     6     9    1
    14     9    10   ar
    15    10    11   ar
    16    11    12   ar
    17    12    13    1
    18    12    14   ar
    19    14    15    1
    20    14    16   ar
    21     6     7    1
    22    23    24   ar
    23    24    19   ar
    24     6     1    1
    25    16     9   ar
    26     7     1    1
    27     3     8    1
@<TRIPOS>MOLECULE
*****
 24 27 0 0 0
SMALL
GASTEIGER

@<TRIPOS>ATOM
      1 C          62.9130   84.4660   11.3570 C.3     1  UNL1        0.0409
      2 C          63.1086   84.0513   12.7852 C.3     1  UNL1        0.0707
      3 N          64.0860   82.9649   13.1235 N.3     1  UNL1       -0.2974
      4 C          64.8676   82.2932   12.0336 C.3     1  UNL1        0.0689
      5 C          64.6720   82.7079   10.6055 C.3     1  UNL1        0.0212
      6 C          63.6946   83.7943   10.2671 C.3     1  UNL1        0.0234
      7 C          62.7173   84.8807    9.9287 C.3     1  UNL1        0.0078
      8 H          63.5596   82.2338   13.6018 H       1  UNL1        0.1232
      9 C          63.3563   83.9427   11.7209 C.ar    1  UNL1       -0.0218
     10 C          62.3104   83.0643   12.3410 C.ar    1  UNL1       -0.0034
     11 C          61.9721   83.2127   13.7948 C.ar    1  UNL1        0.0119
     12 C          62.6797   84.2394   14.6285 C.ar    1  UNL1        0.0682
     13 CL         62.3414   84.3878   16.0824 Cl      1  UNL1       -0.0814
     14 C          63.7256   85.1177   14.0085 C.ar    1  UNL1        0.0679
     15 CL         64.4333   86.1445   14.8422 Cl      1  UNL1       -0.0814
     16 C          64.0640   84.9694   12.5546 C.ar    1  UNL1        0.0080
     17 C          61.8974   85.4810   11.7908 C.3     1  UNL1        0.1286
     18 C          63.2364   90.5605   11.2551 C.3     1  UNL1        0.0540
     19 C          62.5936   89.2236   11.0330 C.ar    1  UNL1        0.0801
     20 C          61.6111   88.8866    9.9508 C.ar    1  UNL1        0.0308
     21 C          61.2306   87.4436   10.1030 C.ar    1  UNL1        0.0571
     22 C          60.2712   86.6882    9.2320 C.3     1  UNL1        0.0517
     23 N          61.9781   86.8888   11.2792 N.ar    1  UNL1       -0.2552
     24 N          62.8205   87.9888   11.8539 N.ar    1  UNL1       -0.1740
@<TRIPOS>BOND
     1    18    19    1
     2    19    20   ar
     3    20    21   ar
     4    21    22    1
     5    21    23   ar
     6    23    17    1
     7    17     1    1
     8     1     2    1
     9     2     3    1
    10     3     4    1
    11     4     5    1
    12     5     6    1
    13     6     9    1
    14     9    10   ar
    15    10    11   ar
    16    11    12   ar
    17    12    13    1
    18    12    14   ar
    19    14    15    1
    20    14    16   ar
    21     6     7    1
    22    23    24   ar
    23    24    19   ar
    24     6     1    1
    25    16     9   ar
    26     7     1    1
    27     3     8    1
@<TRIPOS>MOLECULE
*****
 24 27 0 0 0
SMALL
GASTEIGER

@<TRIPOS>ATOM
      1 C          63.3559   82.8581   12.0450 C.3     1  UNL1        0.0409
      2 C          63.3794   83.3792   13.4513 C.3     1  UNL1        0.0707
      3 N          63.1209   82.4498   14.5999 N.3     1  UNL1       -0.2974
      4 C          62.8390   80.9993   14.3422 C.3     1  UNL1        0.0689
      5 C          62.8155   80.4781   12.9359 C.3     1  UNL1        0.0212
      6 C          63.0740   81.4075   11.7873 C.3     1  UNL1        0.0234
      7 C          63.3325   82.3369   10.6386 C.3     1  UNL1        0.0078
      8 H          62.3156   82.8213   15.1038 H       1  UNL1        0.1232
      9 C          63.2503   82.5458   12.7480 C.ar    1  UNL1       -0.0218
     10 C          62.0495   83.1963   13.3687 C.ar    1  UNL1       -0.0034
     11 C          62.2258   84.3347   14.3294 C.ar    1  UNL1        0.0119
     12 C          63.6028   84.8226   14.6696 C.ar    1  UNL1        0.0682
     13 CL         63.7791   85.9610   15.6304 Cl      1  UNL1       -0.0814
     14 C          64.8036   84.1722   14.0490 C.ar    1  UNL1        0.0679
     15 CL         66.1806   84.6601   14.3892 Cl      1  UNL1       -0.0814
     16 C          64.6273   83.0338   13.0882 C.ar    1  UNL1        0.0080
     17 C          63.6679   84.2321   11.5306 C.3     1  UNL1        0.1286
     18 C          62.5327   84.8860    6.4155 C.3     1  UNL1        0.0540
     19 C          62.5138   85.0195    7.9094 C.ar    1  UNL1        0.0801
     20 C          61.6110   85.9169    8.7029 C.ar    1  UNL1        0.0308
     21 C          61.9334   85.7312   10.1560 C.ar    1  UNL1        0.0571
     22 C          61.2703   86.4343   11.3031 C.3     1  UNL1        0.0517
     23 N          63.0355   84.7190   10.2606 N.ar    1  UNL1       -0.2552
     24 N          63.3941   84.2792    8.8721 N.ar    1  UNL1       -0.1740
@<TRIPOS>BOND
     1    18    19    1
     2    19    20   ar
     3    20    21   ar
     4    21    22    1
     5    21    23   ar
     6    23    17    1
     7    17     1    1
     8     1     2    1
     9     2     3    1
    10     3     4    1
    11     4     5    1
    12     5     6    1
    13     6     9    1
    14     9    10   ar
    15    10    11   ar
    16    11    12   ar
    17    12    13    1
    18    12    14   ar
    19    14    15    1
    20    14    16   ar
    21     6     7    1
    22    23    24   ar
    23    24    19   ar
    24     6     1    1
    25    16     9   ar
    26     7     1    1
    27     3     8    1
@<TRIPOS>MOLECULE
*****
 24 27 0 0 0
SMALL
GASTEIGER

@<TRIPOS>ATOM
      1 C          63.6494   90.6388   13.0319 C.3     1  UNL1        0.0409
      2 C          63.9834   90.1172   14.3980 C.3     1  UNL1        0.0707
      3 N          65.2820   90.4934   15.0476 N.3     1  UNL1       -0.2974
      4 C          66.2467   91.3912   14.3310 C.3     1  UNL1        0.0689
      5 C          65.9127   91.9127   12.9649 C.3     1  UNL1        0.0212
      6 C          64.6141   91.5365   12.3153 C.3     1  UNL1        0.0234
      7 C          63.3154   91.1603   11.6656 C.3     1  UNL1        0.0078
      8 H          65.7776   89.6231   15.2408 H       1  UNL1        0.1232
      9 C          64.2500   90.7171   13.5178 C.ar    1  UNL1       -0.0218
     10 C          63.6219   91.3743   14.7110 C.ar    1  UNL1       -0.0034
     11 C          63.2578   90.5549   15.9134 C.ar    1  UNL1        0.0119
     12 C          63.5217   89.0783   15.9228 C.ar    1  UNL1        0.0682
     13 CL         63.1575   88.2590   17.1253 Cl      1  UNL1       -0.0814
     14 C          64.1498   88.4212   14.7297 C.ar    1  UNL1        0.0679
     15 CL         64.4137   86.9446   14.7390 Cl      1  UNL1       -0.0814
     16 C          64.5139   89.2405   13.5271 C.ar    1  UNL1        0.0080
     17 C          62.3427   89.9033   13.0705 C.3     1  UNL1        0.1286
     18 C          62.0255   86.5269    9.0233 C.3     1  UNL1        0.0540
     19 C          61.7071   87.6280    9.9908 C.ar    1  UNL1        0.0801
     20 C          60.4910   88.5056    9.9587 C.ar    1  UNL1        0.0308
     21 C          60.5811   89.4648   11.1085 C.ar    1  UNL1        0.0571
     22 C          59.5760   90.5229   11.4547 C.3     1  UNL1        0.0517
     23 N          61.8529   89.1799   11.8512 N.ar    1  UNL1       -0.2552
     24 N          62.5487   88.0447   11.1604 N.ar    1  UNL1       -0.1740
@<TRIPOS>BOND
     1    18    19    1
     2    19    20   ar
     3    20    21   ar
     4    21    22    1
     5    21    23   ar
     6    23    17    1
     7    17     1    1
     8     1     2    1
     9     2     3    1
    10     3     4    1
    11     4     5    1
    12     5     6    1
    13     6     9    1
    14     9    10   ar
    15    10    11   ar
    16    11    12   ar
    17    12    13    1
    18    12    14   ar
    19    14    15    1
    20    14    16   ar
    21     6     7    1
    22    23    24   ar
    23    24    19   ar
    24     6     1    1
    25    16     9   ar
    26     7     1    1
    27     3     8    1
@<TRIPOS>MOLECULE
*****
 24 27 0 0 0
SMALL
GASTEIGER

@<TRIPOS>ATOM
      1 C          65.7287   92.6389   12.4018 C.3     1  UNL1        0.0409
      2 C          66.4913   92.3646   13.6640 C.3     1  UNL1        0.0707
      3 N          66.1049   91.2079   14.5373 N.3     1  UNL1       -0.2974
      4 C          64.9560   90.3255   14.1484 C.3     1  UNL1        0.0689
      5 C          64.1934   90.5998   12.8862 C.3     1  UNL1        0.0212
      6 C          64.5797   91.7565   12.0129 C.3     1  UNL1        0.0234
      7 C          64.9661   92.9132   11.1395 C.3     1  UNL1        0.0078
      8 H          65.8827   91.5933   15.4551 H       1  UNL1        0.1232
      9 C          65.6833   92.1075   12.9661 C.ar    1  UNL1       -0.0218
     10 C          65.3797   92.8888   14.2101 C.ar    1  UNL1       -0.0034
     11 C          66.4833   93.2399   15.1634 C.ar    1  UNL1        0.0119
     12 C          67.8906   92.8097   14.8728 C.ar    1  UNL1        0.0682
     13 CL         68.9942   93.1608   15.8261 Cl      1  UNL1       -0.0814
     14 C          68.1943   92.0285   13.6288 C.ar    1  UNL1        0.0679
     15 CL         69.6016   91.5983   13.3382 Cl      1  UNL1       -0.0814
     16 C          67.0906   91.6774   12.6755 C.ar    1  UNL1        0.0080
     17 C          66.6151   93.8162   12.1221 C.3     1  UNL1        0.1286
     18 C          66.0365   96.8559    7.8436 C.3     1  UNL1        0.0540
     19 C          66.4669   95.7486    8.7591 C.ar    1  UNL1        0.0801
     20 C          67.3616   94.6010    8.3948 C.ar    1  UNL1        0.0308
     21 C          67.5260   93.7374    9.6103 C.ar    1  UNL1        0.0571
     22 C          68.3404   92.4807    9.6953 C.3     1  UNL1        0.0517
     23 N          66.7329   94.3513   10.7258 N.ar    1  UNL1       -0.2552
     24 N          66.0784   95.5942   10.1997 N.ar    1  UNL1       -0.1740
@<TRIPOS>BOND
     1    18    19    1
     2    19    20   ar
     3    20    21   ar
     4    21    22    1
     5    21    23   ar
     6    23    17    1
     7    17     1    1
     8     1     2    1
     9     2     3    1
    10     3     4    1
    11     4     5    1
    12     5     6    1
    13     6     9    1
    14     9    10   ar
    15    10    11   ar
    16    11    12   ar
    17    12    13    1
    18    12    14   ar
    19    14    15    1
    20    14    16   ar
    21     6     7    1
    22    23    24   ar
    23    24    19   ar
    24     6     1    1
    25    16     9   ar
    26     7     1    1
    27     3     8    1
@<TRIPOS>MOLECULE
*****
 24 27 0 0 0
SMALL
GASTEIGER

@<TRIPOS>ATOM
      1 C          62.1027   86.3849   10.0910 C.3     1  UNL1        0.0409
      2 C          61.3076   87.6530   10.1899 C.3     1  UNL1        0.0707
      3 N          60.4131   88.0673    9.0594 N.3     1  UNL1       -0.2974
      4 C          60.3136   87.2136    7.8300 C.3     1  UNL1        0.0689
      5 C          61.1087   85.9455    7.7312 C.3     1  UNL1        0.0212
      6 C          62.0032   85.5312    8.8617 C.3     1  UNL1        0.0234
      7 C          62.8978   85.1168    9.9922 C.3     1  UNL1        0.0078
      8 H          60.7312   88.9871    8.7541 H       1  UNL1        0.1232
      9 C          61.6016   86.7562    9.6285 C.ar    1  UNL1       -0.0218
     10 C          60.3476   86.7482   10.4517 C.ar    1  UNL1       -0.0034
     11 C          59.9460   87.9732   11.2184 C.ar    1  UNL1        0.0119
     12 C          60.7983   89.2063   11.1621 C.ar    1  UNL1        0.0682
     13 CL         60.3966   90.4313   11.9289 Cl      1  UNL1       -0.0814
     14 C          62.0522   89.2143   10.3390 C.ar    1  UNL1        0.0679
     15 CL         62.9045   90.4474   10.2826 Cl      1  UNL1       -0.0814
     16 C          62.4539   87.9893    9.5721 C.ar    1  UNL1        0.0080
     17 C          62.6766   86.6386   11.4535 C.3     1  UNL1        0.1286
     18 C          62.5068   81.8405   13.6513 C.3     1  UNL1        0.0540
     19 C          62.8013   83.2923   13.4164 C.ar    1  UNL1        0.0801
     20 C          63.5815   84.1924   14.3280 C.ar    1  UNL1        0.0308
     21 C          63.6298   85.5555   13.7037 C.ar    1  UNL1        0.0571
     22 C          64.3091   86.7640   14.2763 C.3     1  UNL1        0.0517
     23 N          62.8794   85.4978   12.4061 N.ar    1  UNL1       -0.2552
     24 N          62.3673   84.0991   12.2286 N.ar    1  UNL1       -0.1740
@<TRIPOS>BOND
     1    18    19    1
     2    19    20   ar
     3    20    21   ar
     4    21    22    1
     5    21    23   ar
     6    23    17    1
     7    17     1    1
     8     1     2    1
     9     2     3    1
    10     3     4    1
    11     4     5    1
    12     5     6    1
    13     6     9    1
    14     9    10   ar
    15    10    11   ar
    16    11    12   ar
    17    12    13    1
    18    12    14   ar
    19    14    15    1
    20    14    16   ar
    21     6     7    1
    22    23    24   ar
    23    24    19   ar
    24     6     1    1
    25    16     9   ar
    26     7     1    1
    27     3     8    1
