@<TRIPOS>MOLECULE
*****
 39 42 0 0 0
SMALL
GASTEIGER

@<TRIPOS>ATOM
      1 C          57.0849   90.0973    6.3019 C.3     1  UNL1        0.0265
      2 C          58.5763   90.0312    6.1565 C.3     1  UNL1        0.1011
      3 N          59.2742   90.9226    5.1725 N.am    1  UNL1       -0.2438
      4 C          60.7364   90.7345    4.8958 C.3     1  UNL1        0.1009
      5 C          61.4343   91.6259    3.9117 C.3     1  UNL1        0.0662
      6 C          60.6700   92.7054    3.2044 C.3     1  UNL1        0.1600
      7 O          59.2078   92.8937    3.4811 O.3     1  UNL1       -0.4374
      8 C          58.5099   92.0023    4.4652 C.2     1  UNL1        0.4051
      9 O          57.0477   92.1905    4.7419 O.2     1  UNL1       -0.2262
     10 C          62.0309   92.9178    2.6104 C.ar    1  UNL1        0.0138
     11 C          62.9551   91.7523    2.4173 C.ar    1  UNL1       -0.0010
     12 C          64.3161   91.9646    1.8232 C.ar    1  UNL1       -0.0002
     13 C          64.7526   93.3425    1.4223 C.ar    1  UNL1       -0.0000
     14 C          63.8284   94.5081    1.6154 C.ar    1  UNL1       -0.0002
     15 C          62.4675   94.2957    2.2094 C.ar    1  UNL1       -0.0010
     16 C          60.3783   93.8588    2.2908 C.3     1  UNL1        0.0714
     17 C          59.5975   93.6376    1.0293 C.3     1  UNL1        0.0922
     18 C          59.3680   95.1153    0.9121 C.3     1  UNL1        0.0294
     19 C          59.8269   92.1599    1.1465 C.3     1  UNL1        0.0294
     20 O          58.8166   93.4164   -0.2321 O.3     1  UNL1       -0.3866
     21 H          58.5085   94.2697   -0.5754 H       1  UNL1        0.2102
     22 C          59.3700   89.0737    6.9952 C.ar    1  UNL1       -0.0042
     23 C          59.4036   87.6165    6.6411 C.ar    1  UNL1       -0.0027
     24 C          60.1972   86.6590    7.4797 C.ar    1  UNL1       -0.0003
     25 C          60.9572   87.1587    8.6725 C.ar    1  UNL1        0.0002
     26 C          60.9235   88.6159    9.0267 C.ar    1  UNL1       -0.0003
     27 C          60.1299   89.5734    8.1880 C.ar    1  UNL1       -0.0027
     28 C          61.7508   86.2012    9.5112 C.ar    1  UNL1        0.0062
     29 C          62.7431   85.2815    8.8636 C.ar    1  UNL1        0.0189
     30 C          63.5367   84.3239    9.7023 C.ar    1  UNL1        0.0786
     31 N          63.3380   84.2861   11.1886 N.ar    1  UNL1       -0.2859
     32 C          62.3457   85.2059   11.8362 C.ar    1  UNL1        0.2612
     33 O          62.1469   85.1681   13.3225 O.2     1  UNL1       -0.2670
     34 C          61.5521   86.1634   10.9975 C.ar    1  UNL1        0.0608
     35 C          64.1316   83.3287   12.0273 C.3     1  UNL1        0.2124
     36 C          63.4945   82.0681   12.5323 C.3     1  UNL1        0.4183
     37 F          62.8573   80.8075   13.0374 F       1  UNL1       -0.1679
     38 F          63.7654   82.4968   13.9439 F       1  UNL1       -0.1679
     39 F          63.2236   81.6395   11.1206 F       1  UNL1       -0.1679
@<TRIPOS>BOND
     1     2     1    1
     2     2    22    1
     3    22    23   ar
     4    23    24   ar
     5    24    25   ar
     6    25    28    1
     7    28    29   ar
     8    29    30   ar
     9    30    31   ar
    10    31    35    1
    11    35    36    1
    12    36    37    1
    13    36    38    1
    14    36    39    1
    15    31    32   ar
    16    32    33    2
    17    32    34   ar
    18    25    26   ar
    19    26    27   ar
    20     2     3    1
    21     3     4    1
    22     4     5    1
    23     5     6    1
    24     6    16    1
    25    16    17    1
    26    17    18    1
    27    17    19    1
    28    17    20    1
    29     6    10    1
    30    10    11   ar
    31    11    12   ar
    32    12    13   ar
    33    13    14   ar
    34    14    15   ar
    35     6     7    1
    36     7     8    1
    37     8     9    2
    38    27    22   ar
    39     8     3   am
    40    34    28   ar
    41    15    10   ar
    42    20    21    1
@<TRIPOS>MOLECULE
*****
 39 42 0 0 0
SMALL
GASTEIGER

@<TRIPOS>ATOM
      1 C          57.1108   90.0096    5.9223 C.3     1  UNL1        0.0265
      2 C          58.6035   90.1278    6.0103 C.3     1  UNL1        0.1011
      3 N          59.3449   91.0032    5.0438 N.am    1  UNL1       -0.2438
      4 C          60.8039   90.7687    4.7865 C.3     1  UNL1        0.1009
      5 C          61.5452   91.6441    3.8201 C.3     1  UNL1        0.0662
      6 C          60.8276   92.7540    3.1108 C.3     1  UNL1        0.1600
      7 O          59.3685   92.9885    3.3681 O.3     1  UNL1       -0.4374
      8 C          58.6271   92.1131    4.3345 C.2     1  UNL1        0.4051
      9 O          57.1681   92.3476    4.5918 O.2     1  UNL1       -0.2262
     10 C          62.2033   92.9256    2.5382 C.ar    1  UNL1        0.0138
     11 C          63.1118   91.7400    2.4009 C.ar    1  UNL1       -0.0010
     12 C          64.4876   91.9117    1.8283 C.ar    1  UNL1       -0.0002
     13 C          64.9547   93.2690    1.3930 C.ar    1  UNL1       -0.0000
     14 C          64.0462   94.4546    1.5303 C.ar    1  UNL1       -0.0002
     15 C          62.6704   94.2829    2.1029 C.ar    1  UNL1       -0.0010
     16 C          60.5877   93.9235    2.2027 C.3     1  UNL1        0.0714
     17 C          59.6718   93.7818    1.0233 C.3     1  UNL1        0.0922
     18 C          59.9548   92.3093    0.9804 C.3     1  UNL1        0.0294
     19 C          59.3888   95.2542    1.0662 C.3     1  UNL1        0.0294
     20 O          58.7559   93.6400   -0.1561 O.3     1  UNL1       -0.3866
     21 H          58.7311   92.7117   -0.4364 H       1  UNL1        0.2102
     22 C          59.3549   89.3705    7.0648 C.ar    1  UNL1       -0.0042
     23 C          60.0752   90.1125    8.1513 C.ar    1  UNL1       -0.0027
     24 C          60.8266   89.3552    9.2057 C.ar    1  UNL1       -0.0003
     25 C          60.8577   87.8559    9.1736 C.ar    1  UNL1        0.0002
     26 C          60.1375   87.1138    8.0871 C.ar    1  UNL1       -0.0003
     27 C          59.3861   87.8711    7.0327 C.ar    1  UNL1       -0.0027
     28 C          61.6092   87.0986   10.2281 C.ar    1  UNL1        0.0062
     29 C          61.6557   85.6000   10.1856 C.ar    1  UNL1        0.0189
     30 C          62.4072   84.8427   11.2401 C.ar    1  UNL1        0.0786
     31 N          63.1120   85.5841   12.3371 N.ar    1  UNL1       -0.2859
     32 C          63.0655   87.0828   12.3796 C.ar    1  UNL1        0.2612
     33 O          63.7703   87.8243   13.4766 O.2     1  UNL1       -0.2670
     34 C          62.3140   87.8400   11.3252 C.ar    1  UNL1        0.0608
     35 C          63.8635   84.8269   13.3916 C.3     1  UNL1        0.2124
     36 C          63.2837   83.5696   13.9686 C.3     1  UNL1        0.4183
     37 F          62.7040   82.3122   14.5457 F       1  UNL1       -0.1679
     38 F          64.4044   82.7759   13.3653 F       1  UNL1       -0.1679
     39 F          62.1630   84.3632   14.5720 F       1  UNL1       -0.1679
@<TRIPOS>BOND
     1     2     1    1
     2     2    22    1
     3    22    23   ar
     4    23    24   ar
     5    24    25   ar
     6    25    28    1
     7    28    29   ar
     8    29    30   ar
     9    30    31   ar
    10    31    35    1
    11    35    36    1
    12    36    37    1
    13    36    38    1
    14    36    39    1
    15    31    32   ar
    16    32    33    2
    17    32    34   ar
    18    25    26   ar
    19    26    27   ar
    20     2     3    1
    21     3     4    1
    22     4     5    1
    23     5     6    1
    24     6    16    1
    25    16    17    1
    26    17    18    1
    27    17    19    1
    28    17    20    1
    29     6    10    1
    30    10    11   ar
    31    11    12   ar
    32    12    13   ar
    33    13    14   ar
    34    14    15   ar
    35     6     7    1
    36     7     8    1
    37     8     9    2
    38    27    22   ar
    39     8     3   am
    40    34    28   ar
    41    15    10   ar
    42    20    21    1
@<TRIPOS>MOLECULE
*****
 39 42 0 0 0
SMALL
GASTEIGER

@<TRIPOS>ATOM
      1 C          57.4632   89.3587    6.6501 C.3     1  UNL1        0.0265
      2 C          58.9542   89.5215    6.6350 C.3     1  UNL1        0.1011
      3 N          59.7975   88.8019    7.6455 N.am    1  UNL1       -0.2438
      4 C          60.2851   87.4120    7.3621 C.3     1  UNL1        0.1009
      5 C          61.1284   86.6925    8.3725 C.3     1  UNL1        0.0662
      6 C          61.4842   87.3628    9.6664 C.3     1  UNL1        0.1600
      7 O          60.9966   88.7528    9.9498 O.3     1  UNL1       -0.4374
      8 C          60.1533   89.4723    8.9394 C.2     1  UNL1        0.4051
      9 O          59.6657   90.8623    9.2228 O.2     1  UNL1       -0.2262
     10 C          62.1792   86.0469    9.8551 C.ar    1  UNL1        0.0138
     11 C          62.9712   85.4490    8.7303 C.ar    1  UNL1       -0.0010
     12 C          63.6662   84.1331    8.9190 C.ar    1  UNL1       -0.0002
     13 C          63.5691   83.4153   10.2325 C.ar    1  UNL1       -0.0000
     14 C          62.7770   84.0132   11.3573 C.ar    1  UNL1       -0.0002
     15 C          62.0820   85.3291   11.1686 C.ar    1  UNL1       -0.0010
     16 C          62.0813   87.5761   11.0258 C.3     1  UNL1        0.0714
     17 C          61.6589   88.7531   11.8541 C.3     1  UNL1        0.0922
     18 C          63.0473   89.3141   11.7651 C.3     1  UNL1        0.0294
     19 C          60.2707   88.1923   11.9432 C.3     1  UNL1        0.0294
     20 O          61.2367   89.9302   12.6825 O.3     1  UNL1       -0.3866
     21 H          61.9921   90.5258   12.8067 H       1  UNL1        0.2102
     22 C          59.6020   90.4040    5.6095 C.ar    1  UNL1       -0.0042
     23 C          58.8024   91.4756    4.9296 C.ar    1  UNL1       -0.0027
     24 C          59.4502   92.3580    3.9041 C.ar    1  UNL1       -0.0003
     25 C          60.8975   92.1688    3.5585 C.ar    1  UNL1        0.0002
     26 C          61.6971   91.0972    4.2384 C.ar    1  UNL1       -0.0003
     27 C          61.0493   90.2148    5.2639 C.ar    1  UNL1       -0.0027
     28 C          61.5453   93.0513    2.5329 C.ar    1  UNL1        0.0062
     29 C          60.7372   94.1000    1.8279 C.ar    1  UNL1        0.0189
     30 C          61.3850   94.9825    0.8024 C.ar    1  UNL1        0.0786
     31 N          62.8409   94.8162    0.4819 N.ar    1  UNL1       -0.2859
     32 C          63.6490   93.7674    1.1870 C.ar    1  UNL1        0.2612
     33 O          65.1049   93.6011    0.8665 O.2     1  UNL1       -0.2670
     34 C          63.0012   92.8850    2.2125 C.ar    1  UNL1        0.0608
     35 C          63.4887   95.6986   -0.5436 C.3     1  UNL1        0.2124
     36 C          64.0876   95.0967   -1.7801 C.3     1  UNL1        0.4183
     37 F          64.6867   94.4948   -3.0166 F       1  UNL1       -0.1679
     38 F          65.3771   95.8113   -1.5033 F       1  UNL1       -0.1679
     39 F          62.7982   94.3821   -2.0569 F       1  UNL1       -0.1679
@<TRIPOS>BOND
     1     2     1    1
     2     2    22    1
     3    22    23   ar
     4    23    24   ar
     5    24    25   ar
     6    25    28    1
     7    28    29   ar
     8    29    30   ar
     9    30    31   ar
    10    31    35    1
    11    35    36    1
    12    36    37    1
    13    36    38    1
    14    36    39    1
    15    31    32   ar
    16    32    33    2
    17    32    34   ar
    18    25    26   ar
    19    26    27   ar
    20     2     3    1
    21     3     4    1
    22     4     5    1
    23     5     6    1
    24     6    16    1
    25    16    17    1
    26    17    18    1
    27    17    19    1
    28    17    20    1
    29     6    10    1
    30    10    11   ar
    31    11    12   ar
    32    12    13   ar
    33    13    14   ar
    34    14    15   ar
    35     6     7    1
    36     7     8    1
    37     8     9    2
    38    27    22   ar
    39     8     3   am
    40    34    28   ar
    41    15    10   ar
    42    20    21    1
@<TRIPOS>MOLECULE
*****
 39 42 0 0 0
SMALL
GASTEIGER

@<TRIPOS>ATOM
      1 C          57.4546   89.3525    6.6600 C.3     1  UNL1        0.0265
      2 C          58.9455   89.5162    6.6421 C.3     1  UNL1        0.1011
      3 N          59.7911   88.7973    7.6510 N.am    1  UNL1       -0.2438
      4 C          60.2805   87.4083    7.3661 C.3     1  UNL1        0.1009
      5 C          61.1261   86.6893    8.3751 C.3     1  UNL1        0.0662
      6 C          61.4824   87.3593    9.6689 C.3     1  UNL1        0.1600
      7 O          60.9930   88.7483    9.9539 O.3     1  UNL1       -0.4374
      8 C          60.1474   89.4673    8.9450 C.2     1  UNL1        0.4051
      9 O          59.6580   90.8563    9.2299 O.2     1  UNL1       -0.2262
     10 C          62.1796   86.0444    9.8559 C.ar    1  UNL1        0.0138
     11 C          62.0856   85.3257   11.1692 C.ar    1  UNL1       -0.0010
     12 C          62.7828   84.0108   11.3562 C.ar    1  UNL1       -0.0002
     13 C          63.5740   83.4146   10.2298 C.ar    1  UNL1       -0.0000
     14 C          63.6680   84.1333    8.9166 C.ar    1  UNL1       -0.0002
     15 C          62.9708   85.4482    8.7296 C.ar    1  UNL1       -0.0010
     16 C          62.0808   87.5727   11.0278 C.3     1  UNL1        0.0714
     17 C          61.6560   88.7472   11.8584 C.3     1  UNL1        0.0922
     18 C          60.2679   88.1849   11.9437 C.3     1  UNL1        0.0294
     19 C          63.0439   89.3095   11.7731 C.3     1  UNL1        0.0294
     20 O          61.2310   89.9217   12.6890 O.3     1  UNL1       -0.3866
     21 H          60.2932   89.8320   12.9200 H       1  UNL1        0.2102
     22 C          59.5908   90.3990    5.6152 C.ar    1  UNL1       -0.0042
     23 C          61.0381   90.2120    5.2684 C.ar    1  UNL1       -0.0027
     24 C          61.6834   91.0947    4.2416 C.ar    1  UNL1       -0.0003
     25 C          60.8814   92.1644    3.5616 C.ar    1  UNL1        0.0002
     26 C          59.4341   92.3514    3.9084 C.ar    1  UNL1       -0.0003
     27 C          58.7888   91.4687    4.9352 C.ar    1  UNL1       -0.0027
     28 C          61.5267   93.0471    2.5347 C.ar    1  UNL1        0.0062
     29 C          60.7165   94.0948    1.8306 C.ar    1  UNL1        0.0189
     30 C          61.3618   94.9776    0.8037 C.ar    1  UNL1        0.0786
     31 N          62.8174   94.8125    0.4810 N.ar    1  UNL1       -0.2859
     32 C          63.6276   93.7648    1.1852 C.ar    1  UNL1        0.2612
     33 O          65.0832   93.5997    0.8626 O.2     1  UNL1       -0.2670
     34 C          62.9823   92.8821    2.2120 C.ar    1  UNL1        0.0608
     35 C          63.4628   95.6952   -0.5458 C.3     1  UNL1        0.2124
     36 C          64.0665   95.0928   -1.7797 C.3     1  UNL1        0.4183
     37 F          64.6702   94.4904   -3.0137 F       1  UNL1       -0.1679
     38 F          62.7608   94.4237   -2.0918 F       1  UNL1       -0.1679
     39 F          65.3721   95.7619   -1.4675 F       1  UNL1       -0.1679
@<TRIPOS>BOND
     1     2     1    1
     2     2    22    1
     3    22    23   ar
     4    23    24   ar
     5    24    25   ar
     6    25    28    1
     7    28    29   ar
     8    29    30   ar
     9    30    31   ar
    10    31    35    1
    11    35    36    1
    12    36    37    1
    13    36    38    1
    14    36    39    1
    15    31    32   ar
    16    32    33    2
    17    32    34   ar
    18    25    26   ar
    19    26    27   ar
    20     2     3    1
    21     3     4    1
    22     4     5    1
    23     5     6    1
    24     6    16    1
    25    16    17    1
    26    17    18    1
    27    17    19    1
    28    17    20    1
    29     6    10    1
    30    10    11   ar
    31    11    12   ar
    32    12    13   ar
    33    13    14   ar
    34    14    15   ar
    35     6     7    1
    36     7     8    1
    37     8     9    2
    38    27    22   ar
    39     8     3   am
    40    34    28   ar
    41    15    10   ar
    42    20    21    1
@<TRIPOS>MOLECULE
*****
 39 42 0 0 0
SMALL
GASTEIGER

@<TRIPOS>ATOM
      1 C          57.5165   89.3730    6.5059 C.3     1  UNL1        0.0265
      2 C          58.9749   89.7129    6.5925 C.3     1  UNL1        0.1011
      3 N          59.7958   89.2076    7.7417 N.am    1  UNL1       -0.2438
      4 C          60.5616   90.1723    8.5978 C.3     1  UNL1        0.1009
      5 C          61.3826   89.6670    9.7470 C.3     1  UNL1        0.0662
      6 C          61.4378   88.1970   10.0401 C.3     1  UNL1        0.1600
      7 O          60.6720   87.2322    9.1840 O.3     1  UNL1       -0.4374
      8 C          59.8511   87.7375    8.0348 C.2     1  UNL1        0.4051
      9 O          59.0853   86.7728    7.1787 O.2     1  UNL1       -0.2262
     10 C          62.3304   88.7135   11.1294 C.ar    1  UNL1        0.0138
     11 C          62.7448   90.1551   11.1390 C.ar    1  UNL1       -0.0010
     12 C          63.6374   90.6716   12.2283 C.ar    1  UNL1       -0.0002
     13 C          64.1155   89.7465   13.3079 C.ar    1  UNL1       -0.0000
     14 C          63.7011   88.3049   13.2983 C.ar    1  UNL1       -0.0002
     15 C          62.8085   87.7884   12.2090 C.ar    1  UNL1       -0.0010
     16 C          61.8030   86.9063   10.7116 C.3     1  UNL1        0.0714
     17 C          62.4682   85.8147    9.9269 C.3     1  UNL1        0.0922
     18 C          62.0733   84.8191   10.9771 C.3     1  UNL1        0.0294
     19 C          62.8631   86.8102    8.8767 C.3     1  UNL1        0.0294
     20 O          63.1334   84.7230    9.1422 O.3     1  UNL1       -0.3866
     21 H          63.0360   83.8807    9.6134 H       1  UNL1        0.2102
     22 C          59.6124   90.5582    5.5298 C.ar    1  UNL1       -0.0042
     23 C          61.0533   90.3492    5.1694 C.ar    1  UNL1       -0.0027
     24 C          61.6907   91.1945    4.1067 C.ar    1  UNL1       -0.0003
     25 C          60.8872   92.2486    3.4046 C.ar    1  UNL1        0.0002
     26 C          59.4462   92.4576    3.7650 C.ar    1  UNL1       -0.0003
     27 C          58.8088   91.6123    4.8277 C.ar    1  UNL1       -0.0027
     28 C          61.5247   93.0939    2.3419 C.ar    1  UNL1        0.0062
     29 C          60.7072   94.1106    1.6015 C.ar    1  UNL1        0.0189
     30 C          61.3447   94.9558    0.5388 C.ar    1  UNL1        0.0786
     31 N          62.7996   94.7844    0.2166 N.ar    1  UNL1       -0.2859
     32 C          63.6171   93.7676    0.9570 C.ar    1  UNL1        0.2612
     33 O          65.0720   93.5962    0.6348 O.2     1  UNL1       -0.2670
     34 C          62.9796   92.9224    2.0196 C.ar    1  UNL1        0.0608
     35 C          63.4371   95.6296   -0.8460 C.3     1  UNL1        0.2124
     36 C          64.0452   94.9822   -2.0548 C.3     1  UNL1        0.4183
     37 F          64.6534   94.3348   -3.2635 F       1  UNL1       -0.1679
     38 F          65.3340   95.7036   -1.7928 F       1  UNL1       -0.1679
     39 F          62.7565   94.2608   -2.3167 F       1  UNL1       -0.1679
@<TRIPOS>BOND
     1     2     1    1
     2     2    22    1
     3    22    23   ar
     4    23    24   ar
     5    24    25   ar
     6    25    28    1
     7    28    29   ar
     8    29    30   ar
     9    30    31   ar
    10    31    35    1
    11    35    36    1
    12    36    37    1
    13    36    38    1
    14    36    39    1
    15    31    32   ar
    16    32    33    2
    17    32    34   ar
    18    25    26   ar
    19    26    27   ar
    20     2     3    1
    21     3     4    1
    22     4     5    1
    23     5     6    1
    24     6    16    1
    25    16    17    1
    26    17    18    1
    27    17    19    1
    28    17    20    1
    29     6    10    1
    30    10    11   ar
    31    11    12   ar
    32    12    13   ar
    33    13    14   ar
    34    14    15   ar
    35     6     7    1
    36     7     8    1
    37     8     9    2
    38    27    22   ar
    39     8     3   am
    40    34    28   ar
    41    15    10   ar
    42    20    21    1
