@<TRIPOS>MOLECULE
*****
 36 39 0 0 0
SMALL
GASTEIGER

@<TRIPOS>ATOM
      1 C          60.6089   85.7614    8.2504 C.3     1  UNL1        0.0312
      2 C          60.6895   87.1338    8.8504 C.ar    1  UNL1       -0.0159
      3 C          59.9308   88.2693    8.2301 C.ar    1  UNL1       -0.0040
      4 C          60.0114   89.6417    8.8302 C.ar    1  UNL1        0.0012
      5 C          60.8507   89.8785   10.0506 C.ar    1  UNL1        0.0175
      6 C          61.6095   88.7430   10.6709 C.ar    1  UNL1        0.0684
      7 C          61.5289   87.3706   10.0708 C.ar    1  UNL1        0.0682
      8 C          62.2876   86.2350   10.6912 C.ar    1  UNL1        0.2653
      9 O          62.2070   84.8627   10.0912 O.2     1  UNL1       -0.2668
     10 N          63.1269   86.4719   11.9116 N.ar    1  UNL1       -0.2487
     11 C          63.2075   87.8443   12.5117 C.ar    1  UNL1        0.3340
     12 O          64.0469   88.0811   13.7322 O.2     1  UNL1       -0.2462
     13 N          62.4488   88.9798   11.8914 N.ar    1  UNL1       -0.2769
     14 C          63.8857   85.3363   12.5320 C.3     1  UNL1        0.1135
     15 C          63.1736   84.0658   12.8908 C.3     1  UNL1        0.0229
     16 C          63.1778   82.9085   11.9364 C.3     1  UNL1        0.0023
     17 C          62.4657   81.6380   12.2952 C.3     1  UNL1        0.0056
     18 C          61.7494   81.5248   13.6083 C.3     1  UNL1        0.0365
     19 C          61.7452   82.6820   14.5625 C.3     1  UNL1        0.0056
     20 C          62.4573   83.9525   14.2038 C.3     1  UNL1        0.0023
     21 C          61.0373   80.2543   13.9670 C.2     1  UNL1        0.0500
     22 O          61.7276   78.9336   13.7961 O.co2   1  UNL1       -0.5492
     23 O          59.6348   80.3044   14.4967 O.co2   1  UNL1       -0.5492
     24 C          62.5294   90.3522   12.4914 C.3     1  UNL1        0.1379
     25 C          63.7941   91.1499   12.3720 C.ar    1  UNL1        0.0101
     26 C          64.2712   91.6018   11.0236 C.ar    1  UNL1       -0.0017
     27 C          65.5359   92.3995   10.9042 C.ar    1  UNL1       -0.0003
     28 C          66.3234   92.7453   12.1331 C.ar    1  UNL1        0.0045
     29 C          65.8463   92.2934   13.4814 C.ar    1  UNL1        0.0808
     30 C          64.5816   91.4957   13.6009 C.ar    1  UNL1        0.0702
     31 C          66.6338   92.6392   14.7103 C.3     1  UNL1        0.4192
     32 F          67.4214   92.9850   15.9392 F       1  UNL1       -0.1658
     33 F          66.2045   94.0708   14.5827 F       1  UNL1       -0.1658
     34 F          67.0632   91.2076   14.8380 F       1  UNL1       -0.1658
     35 C          64.1045   91.0438   14.9493 C.1     1  UNL1        0.1001
     36 N          63.6274   90.5918   16.2977 N.1     1  UNL1       -0.1908
@<TRIPOS>UNITY_ATOM_ATTR
22 1
charge -1
@<TRIPOS>BOND
     1     1     2    1
     2     2     3   ar
     3     3     4   ar
     4     4     5   ar
     5     5     6   ar
     6     6     7   ar
     7     7     8   ar
     8     8     9    2
     9     8    10   ar
    10    10    14    1
    11    15    14    1
    12    15    16    1
    13    16    17    1
    14    17    18    1
    15    18    21    1
    16    21    22   ar
    17    21    23   ar
    18    18    19    1
    19    19    20    1
    20    10    11   ar
    21    11    12    2
    22    11    13   ar
    23    13    24    1
    24    24    25    1
    25    25    26   ar
    26    26    27   ar
    27    27    28   ar
    28    28    29   ar
    29    29    31    1
    30    31    32    1
    31    31    33    1
    32    31    34    1
    33    29    30   ar
    34    30    35    1
    35    35    36    3
    36     7     2   ar
    37    20    15    1
    38    30    25   ar
    39    13     6   ar
@<TRIPOS>MOLECULE
*****
 36 39 0 0 0
SMALL
GASTEIGER

@<TRIPOS>ATOM
      1 C          59.3966   88.9343    7.8805 C.3     1  UNL1        0.0312
      2 C          60.1608   87.7017    8.2635 C.ar    1  UNL1       -0.0159
      3 C          60.0711   86.4693    7.4133 C.ar    1  UNL1       -0.0040
      4 C          60.8354   85.2367    7.7963 C.ar    1  UNL1        0.0012
      5 C          61.6893   85.2366    9.0295 C.ar    1  UNL1        0.0175
      6 C          61.7790   86.4691    9.8796 C.ar    1  UNL1        0.0684
      7 C          61.0147   87.7017    9.4967 C.ar    1  UNL1        0.0682
      8 C          61.1044   88.9342   10.3469 C.ar    1  UNL1        0.2653
      9 O          60.3402   90.1668    9.9639 O.2     1  UNL1       -0.2668
     10 N          61.9583   88.9341   11.5801 N.ar    1  UNL1       -0.2487
     11 C          62.7226   87.7015   11.9631 C.ar    1  UNL1        0.3340
     12 O          63.5765   87.7015   13.1964 O.2     1  UNL1       -0.2462
     13 N          62.6329   86.4690   11.1129 N.ar    1  UNL1       -0.2769
     14 C          62.0480   90.1666   12.4304 C.3     1  UNL1        0.1135
     15 C          63.3885   90.7489   12.7681 C.3     1  UNL1        0.0229
     16 C          63.9696   90.5496   14.1366 C.3     1  UNL1        0.0023
     17 C          65.3101   91.1319   14.4743 C.3     1  UNL1        0.0056
     18 C          66.0695   91.9134   13.4434 C.3     1  UNL1        0.0365
     19 C          65.4885   92.1126   12.0750 C.3     1  UNL1        0.0056
     20 C          64.1480   91.5304   11.7373 C.3     1  UNL1        0.0023
     21 C          67.4100   92.4956   13.7811 C.2     1  UNL1        0.0500
     22 O          67.5180   93.5837   14.8080 O.co2   1  UNL1       -0.5492
     23 O          68.6426   91.9898   13.0919 O.co2   1  UNL1       -0.5492
     24 C          63.3971   85.2365   11.4959 C.3     1  UNL1        0.1379
     25 C          62.9785   84.4363   12.6935 C.ar    1  UNL1        0.0101
     26 C          62.6395   85.1314   13.9789 C.ar    1  UNL1       -0.0017
     27 C          62.2209   84.3312   15.1765 C.ar    1  UNL1       -0.0003
     28 C          62.1411   82.8359   15.0889 C.ar    1  UNL1        0.0045
     29 C          62.4800   82.1408   13.8036 C.ar    1  UNL1        0.0808
     30 C          62.8987   82.9410   12.6059 C.ar    1  UNL1        0.0702
     31 C          62.4002   80.6455   13.7160 C.3     1  UNL1        0.4192
     32 F          62.3204   79.1501   13.6284 F       1  UNL1       -0.1658
     33 F          60.9108   80.7340   13.5616 F       1  UNL1       -0.1658
     34 F          63.8896   80.5569   13.8705 F       1  UNL1       -0.1658
     35 C          63.2376   82.2458   11.3207 C.1     1  UNL1        0.1001
     36 N          63.5765   81.5507   10.0354 N.1     1  UNL1       -0.1908
@<TRIPOS>UNITY_ATOM_ATTR
22 1
charge -1
@<TRIPOS>BOND
     1     1     2    1
     2     2     3   ar
     3     3     4   ar
     4     4     5   ar
     5     5     6   ar
     6     6     7   ar
     7     7     8   ar
     8     8     9    2
     9     8    10   ar
    10    10    14    1
    11    15    14    1
    12    15    16    1
    13    16    17    1
    14    17    18    1
    15    18    21    1
    16    21    22   ar
    17    21    23   ar
    18    18    19    1
    19    19    20    1
    20    10    11   ar
    21    11    12    2
    22    11    13   ar
    23    13    24    1
    24    24    25    1
    25    25    26   ar
    26    26    27   ar
    27    27    28   ar
    28    28    29   ar
    29    29    31    1
    30    31    32    1
    31    31    33    1
    32    31    34    1
    33    29    30   ar
    34    30    35    1
    35    35    36    3
    36     7     2   ar
    37    20    15    1
    38    30    25   ar
    39    13     6   ar
@<TRIPOS>MOLECULE
*****
 36 39 0 0 0
SMALL
GASTEIGER

@<TRIPOS>ATOM
      1 C          60.8701   86.2190    9.2495 C.3     1  UNL1        0.0312
      2 C          61.0321   87.5718    9.8770 C.ar    1  UNL1       -0.0159
      3 C          60.3069   88.7546    9.3069 C.ar    1  UNL1       -0.0040
      4 C          60.4689   90.1074    9.9344 C.ar    1  UNL1        0.0012
      5 C          61.3560   90.2773   11.1319 C.ar    1  UNL1        0.0175
      6 C          62.0812   89.0945   11.7019 C.ar    1  UNL1        0.0684
      7 C          61.9192   87.7417   11.0745 C.ar    1  UNL1        0.0682
      8 C          62.6444   86.5588   11.6445 C.ar    1  UNL1        0.2653
      9 O          62.4824   85.2060   11.0171 O.2     1  UNL1       -0.2668
     10 N          63.5316   86.7288   12.8420 N.ar    1  UNL1       -0.2487
     11 C          63.6936   88.0816   13.4695 C.ar    1  UNL1        0.3340
     12 O          64.5808   88.2515   14.6671 O.2     1  UNL1       -0.2462
     13 N          62.9684   89.2644   12.8995 N.ar    1  UNL1       -0.2769
     14 C          64.2568   85.5459   13.4121 C.3     1  UNL1        0.1135
     15 C          63.5585   84.2236   13.5301 C.3     1  UNL1        0.0229
     16 C          63.9866   83.0702   12.6718 C.3     1  UNL1        0.0023
     17 C          63.2883   81.7479   12.7898 C.3     1  UNL1        0.0056
     18 C          62.1620   81.5789   13.7660 C.3     1  UNL1        0.0365
     19 C          61.7340   82.7323   14.6243 C.3     1  UNL1        0.0056
     20 C          62.4323   84.0546   14.5063 C.3     1  UNL1        0.0023
     21 C          61.4637   80.2566   13.8840 C.2     1  UNL1        0.0500
     22 O          62.1502   79.0028   13.4294 O.co2   1  UNL1       -0.5492
     23 O          60.0789   80.1882   14.4566 O.co2   1  UNL1       -0.5492
     24 C          63.1304   90.6172   13.5270 C.3     1  UNL1        0.1379
     25 C          64.4887   91.2481   13.6090 C.ar    1  UNL1        0.0101
     26 C          65.2484   91.2275   14.9023 C.ar    1  UNL1       -0.0017
     27 C          66.6068   91.8585   14.9843 C.ar    1  UNL1       -0.0003
     28 C          67.2055   92.5100   13.7731 C.ar    1  UNL1        0.0045
     29 C          66.4459   92.5306   12.4798 C.ar    1  UNL1        0.0808
     30 C          65.0875   91.8996   12.3978 C.ar    1  UNL1        0.0702
     31 C          67.0446   93.1821   11.2686 C.3     1  UNL1        0.4192
     32 F          67.6433   93.8336   10.0574 F       1  UNL1       -0.1658
     33 F          66.3642   94.4704   11.6253 F       1  UNL1       -0.1658
     34 F          67.7251   91.8938   10.9120 F       1  UNL1       -0.1658
     35 C          64.3278   91.9202   11.1045 C.1     1  UNL1        0.1001
     36 N          63.5682   91.9408    9.8112 N.1     1  UNL1       -0.1908
@<TRIPOS>UNITY_ATOM_ATTR
22 1
charge -1
@<TRIPOS>BOND
     1     1     2    1
     2     2     3   ar
     3     3     4   ar
     4     4     5   ar
     5     5     6   ar
     6     6     7   ar
     7     7     8   ar
     8     8     9    2
     9     8    10   ar
    10    10    14    1
    11    15    14    1
    12    15    16    1
    13    16    17    1
    14    17    18    1
    15    18    21    1
    16    21    22   ar
    17    21    23   ar
    18    18    19    1
    19    19    20    1
    20    10    11   ar
    21    11    12    2
    22    11    13   ar
    23    13    24    1
    24    24    25    1
    25    25    26   ar
    26    26    27   ar
    27    27    28   ar
    28    28    29   ar
    29    29    31    1
    30    31    32    1
    31    31    33    1
    32    31    34    1
    33    29    30   ar
    34    30    35    1
    35    35    36    3
    36     7     2   ar
    37    20    15    1
    38    30    25   ar
    39    13     6   ar
@<TRIPOS>MOLECULE
*****
 36 39 0 0 0
SMALL
GASTEIGER

@<TRIPOS>ATOM
      1 C          60.3300   89.0404    9.2630 C.3     1  UNL1        0.0312
      2 C          61.0096   87.8230    9.8163 C.ar    1  UNL1       -0.0159
      3 C          60.7399   86.4753    9.2156 C.ar    1  UNL1       -0.0040
      4 C          61.4196   85.2580    9.7690 C.ar    1  UNL1        0.0012
      5 C          62.3689   85.3883   10.9230 C.ar    1  UNL1        0.0175
      6 C          62.6385   86.7361   11.5237 C.ar    1  UNL1        0.0684
      7 C          61.9589   87.9534   10.9703 C.ar    1  UNL1        0.0682
      8 C          62.2286   89.3012   11.5711 C.ar    1  UNL1        0.2653
      9 O          61.5490   90.5185   11.0178 O.2     1  UNL1       -0.2668
     10 N          63.1779   89.4316   12.7251 N.ar    1  UNL1       -0.2487
     11 C          63.8576   88.2142   13.2784 C.ar    1  UNL1        0.3340
     12 O          64.8069   88.3447   14.4325 O.2     1  UNL1       -0.2462
     13 N          63.5879   86.8665   12.6777 N.ar    1  UNL1       -0.2769
     14 C          63.4476   90.7793   13.3258 C.3     1  UNL1        0.1135
     15 C          64.3787   91.7339   12.6389 C.3     1  UNL1        0.0229
     16 C          64.2876   91.9335   11.1550 C.3     1  UNL1        0.0023
     17 C          65.2187   92.8881   10.4681 C.3     1  UNL1        0.0056
     18 C          66.2409   93.6430   11.2651 C.3     1  UNL1        0.0365
     19 C          66.3320   93.4434   12.7489 C.3     1  UNL1        0.0056
     20 C          65.4009   92.4889   13.4358 C.3     1  UNL1        0.0023
     21 C          67.1720   94.5976   10.5782 C.2     1  UNL1        0.0500
     22 O          68.3401   94.0741    9.7962 O.co2   1  UNL1       -0.5492
     23 O          66.9350   96.0758   10.6732 O.co2   1  UNL1       -0.5492
     24 C          64.2675   85.6492   13.2310 C.3     1  UNL1        0.1379
     25 C          63.4495   84.5129   13.7691 C.ar    1  UNL1        0.0101
     26 C          62.6790   84.6817   15.0451 C.ar    1  UNL1       -0.0017
     27 C          61.8610   83.5454   15.5831 C.ar    1  UNL1       -0.0003
     28 C          61.8133   82.2402   14.8453 C.ar    1  UNL1        0.0045
     29 C          62.5837   82.0714   13.5694 C.ar    1  UNL1        0.0808
     30 C          63.4018   83.2077   13.0313 C.ar    1  UNL1        0.0702
     31 C          62.5360   80.7663   12.8316 C.3     1  UNL1        0.4192
     32 F          62.4883   79.4612   12.0938 F       1  UNL1       -0.1658
     33 F          61.9561   81.4631   11.6365 F       1  UNL1       -0.1658
     34 F          63.1159   80.0695   14.0267 F       1  UNL1       -0.1658
     35 C          64.1722   83.0389   11.7554 C.1     1  UNL1        0.1001
     36 N          64.9426   82.8700   10.4794 N.1     1  UNL1       -0.1908
@<TRIPOS>UNITY_ATOM_ATTR
22 1
charge -1
@<TRIPOS>BOND
     1     1     2    1
     2     2     3   ar
     3     3     4   ar
     4     4     5   ar
     5     5     6   ar
     6     6     7   ar
     7     7     8   ar
     8     8     9    2
     9     8    10   ar
    10    10    14    1
    11    15    14    1
    12    15    16    1
    13    16    17    1
    14    17    18    1
    15    18    21    1
    16    21    22   ar
    17    21    23   ar
    18    18    19    1
    19    19    20    1
    20    10    11   ar
    21    11    12    2
    22    11    13   ar
    23    13    24    1
    24    24    25    1
    25    25    26   ar
    26    26    27   ar
    27    27    28   ar
    28    28    29   ar
    29    29    31    1
    30    31    32    1
    31    31    33    1
    32    31    34    1
    33    29    30   ar
    34    30    35    1
    35    35    36    3
    36     7     2   ar
    37    20    15    1
    38    30    25   ar
    39    13     6   ar
@<TRIPOS>MOLECULE
*****
 36 39 0 0 0
SMALL
GASTEIGER

@<TRIPOS>ATOM
      1 C          60.3923   89.2601    8.9960 C.3     1  UNL1        0.0312
      2 C          60.9346   88.0211    9.6448 C.ar    1  UNL1       -0.0159
      3 C          60.5563   86.6699    9.1147 C.ar    1  UNL1       -0.0040
      4 C          61.0986   85.4310    9.7635 C.ar    1  UNL1        0.0012
      5 C          62.0190   85.5433   10.9425 C.ar    1  UNL1        0.0175
      6 C          62.3972   86.8945   11.4727 C.ar    1  UNL1        0.0684
      7 C          61.8550   88.1334   10.8239 C.ar    1  UNL1        0.0682
      8 C          62.2333   89.4847   11.3541 C.ar    1  UNL1        0.2653
      9 O          61.6910   90.7236   10.7052 O.2     1  UNL1       -0.2668
     10 N          63.1537   89.5970   12.5331 N.ar    1  UNL1       -0.2487
     11 C          63.6959   88.3580   13.1820 C.ar    1  UNL1        0.3340
     12 O          64.6164   88.4703   14.3610 O.2     1  UNL1       -0.2462
     13 N          63.3177   87.0068   12.6518 N.ar    1  UNL1       -0.2769
     14 C          63.5320   90.9482   13.0633 C.3     1  UNL1        0.1135
     15 C          64.5453   91.7822   12.3369 C.3     1  UNL1        0.0229
     16 C          65.7040   92.3738   13.0836 C.3     1  UNL1        0.0023
     17 C          66.7173   93.2077   12.3572 C.3     1  UNL1        0.0056
     18 C          66.5719   93.4500   10.8840 C.3     1  UNL1        0.0365
     19 C          65.4133   92.8584   10.1373 C.3     1  UNL1        0.0056
     20 C          64.4000   92.0245   10.8638 C.3     1  UNL1        0.0023
     21 C          67.5853   94.2840   10.1575 C.2     1  UNL1        0.0500
     22 O          67.2871   95.7196    9.8411 O.co2   1  UNL1       -0.5492
     23 O          68.8967   93.6823    9.7475 O.co2   1  UNL1       -0.5492
     24 C          63.8599   85.7679   13.3006 C.3     1  UNL1        0.1379
     25 C          63.7378   84.4433   12.6074 C.ar    1  UNL1        0.0101
     26 C          64.2306   84.2854   11.1994 C.ar    1  UNL1       -0.0017
     27 C          64.1085   82.9609   10.5062 C.ar    1  UNL1       -0.0003
     28 C          63.4936   81.7942   11.2208 C.ar    1  UNL1        0.0045
     29 C          63.0009   81.9520   12.6287 C.ar    1  UNL1        0.0808
     30 C          63.1230   83.2766   13.3221 C.ar    1  UNL1        0.0702
     31 C          62.3861   80.7853   13.3434 C.3     1  UNL1        0.4192
     32 F          61.7713   79.6185   14.0581 F       1  UNL1       -0.1658
     33 F          61.0216   81.2505   12.9290 F       1  UNL1       -0.1658
     34 F          63.7506   80.3201   13.7578 F       1  UNL1       -0.1658
     35 C          62.6303   83.4344   14.7300 C.1     1  UNL1        0.1001
     36 N          62.1376   83.5923   16.1380 N.1     1  UNL1       -0.1908
@<TRIPOS>UNITY_ATOM_ATTR
22 1
charge -1
@<TRIPOS>BOND
     1     1     2    1
     2     2     3   ar
     3     3     4   ar
     4     4     5   ar
     5     5     6   ar
     6     6     7   ar
     7     7     8   ar
     8     8     9    2
     9     8    10   ar
    10    10    14    1
    11    15    14    1
    12    15    16    1
    13    16    17    1
    14    17    18    1
    15    18    21    1
    16    21    22   ar
    17    21    23   ar
    18    18    19    1
    19    19    20    1
    20    10    11   ar
    21    11    12    2
    22    11    13   ar
    23    13    24    1
    24    24    25    1
    25    25    26   ar
    26    26    27   ar
    27    27    28   ar
    28    28    29   ar
    29    29    31    1
    30    31    32    1
    31    31    33    1
    32    31    34    1
    33    29    30   ar
    34    30    35    1
    35    35    36    3
    36     7     2   ar
    37    20    15    1
    38    30    25   ar
    39    13     6   ar
@<TRIPOS>MOLECULE
*****
 36 39 0 0 0
SMALL
GASTEIGER

@<TRIPOS>ATOM
      1 C          59.5865   87.9201    7.7414 C.3     1  UNL1        0.0312
      2 C          60.5458   86.8184    8.0820 C.ar    1  UNL1       -0.0159
      3 C          60.7111   85.6536    7.1516 C.ar    1  UNL1       -0.0040
      4 C          61.6704   84.5519    7.4922 C.ar    1  UNL1        0.0012
      5 C          62.4644   84.6151    8.7632 C.ar    1  UNL1        0.0175
      6 C          62.2991   85.7800    9.6936 C.ar    1  UNL1        0.0684
      7 C          61.3398   86.8816    9.3530 C.ar    1  UNL1        0.0682
      8 C          61.1745   88.0466   10.2835 C.ar    1  UNL1        0.2653
      9 O          60.2152   89.1482    9.9429 O.2     1  UNL1       -0.2668
     10 N          61.9686   88.1098   11.5545 N.ar    1  UNL1       -0.2487
     11 C          62.9279   87.0081   11.8951 C.ar    1  UNL1        0.3340
     12 O          63.7219   87.0713   13.1662 O.2     1  UNL1       -0.2462
     13 N          63.0932   85.8432   10.9647 N.ar    1  UNL1       -0.2769
     14 C          61.8033   89.2747   12.4850 C.3     1  UNL1        0.1135
     15 C          62.9698   90.1703   12.7799 C.3     1  UNL1        0.0229
     16 C          63.5556   90.2088   14.1604 C.3     1  UNL1        0.0023
     17 C          64.7221   91.1045   14.4553 C.3     1  UNL1        0.0056
     18 C          65.3029   91.9616   13.3699 C.3     1  UNL1        0.0365
     19 C          64.7172   91.9230   11.9896 C.3     1  UNL1        0.0056
     20 C          63.5506   91.0274   11.6946 C.3     1  UNL1        0.0023
     21 C          66.4695   92.8572   13.6649 C.2     1  UNL1        0.0500
     22 O          66.2399   94.2990   14.0088 O.co2   1  UNL1       -0.5492
     23 O          67.8657   92.3109   13.6159 O.co2   1  UNL1       -0.5492
     24 C          64.0525   84.7415   11.3053 C.3     1  UNL1        0.1379
     25 C          63.5795   83.3184   11.3376 C.ar    1  UNL1        0.0101
     26 C          63.8464   82.4128   10.1719 C.ar    1  UNL1       -0.0017
     27 C          63.3734   80.9897   10.2042 C.ar    1  UNL1       -0.0003
     28 C          62.6335   80.4722   11.4020 C.ar    1  UNL1        0.0045
     29 C          62.3666   81.3778   12.5676 C.ar    1  UNL1        0.0808
     30 C          62.8396   82.8010   12.5354 C.ar    1  UNL1        0.0702
     31 C          61.6268   80.8603   13.7654 C.3     1  UNL1        0.4192
     32 F          60.8869   80.3428   14.9633 F       1  UNL1       -0.1658
     33 F          62.8996   80.2711   14.2971 F       1  UNL1       -0.1658
     34 F          60.3539   81.4495   13.2338 F       1  UNL1       -0.1658
     35 C          62.5728   83.7066   13.7010 C.1     1  UNL1        0.1001
     36 N          62.3059   84.6122   14.8667 N.1     1  UNL1       -0.1908
@<TRIPOS>UNITY_ATOM_ATTR
22 1
charge -1
@<TRIPOS>BOND
     1     1     2    1
     2     2     3   ar
     3     3     4   ar
     4     4     5   ar
     5     5     6   ar
     6     6     7   ar
     7     7     8   ar
     8     8     9    2
     9     8    10   ar
    10    10    14    1
    11    15    14    1
    12    15    16    1
    13    16    17    1
    14    17    18    1
    15    18    21    1
    16    21    22   ar
    17    21    23   ar
    18    18    19    1
    19    19    20    1
    20    10    11   ar
    21    11    12    2
    22    11    13   ar
    23    13    24    1
    24    24    25    1
    25    25    26   ar
    26    26    27   ar
    27    27    28   ar
    28    28    29   ar
    29    29    31    1
    30    31    32    1
    31    31    33    1
    32    31    34    1
    33    29    30   ar
    34    30    35    1
    35    35    36    3
    36     7     2   ar
    37    20    15    1
    38    30    25   ar
    39    13     6   ar
@<TRIPOS>MOLECULE
*****
 36 39 0 0 0
SMALL
GASTEIGER

@<TRIPOS>ATOM
      1 C          60.8666   86.1813    9.7743 C.3     1  UNL1        0.0312
      2 C          61.2696   87.6045   10.0236 C.ar    1  UNL1       -0.0159
      3 C          60.7373   88.6992    9.1472 C.ar    1  UNL1       -0.0040
      4 C          61.1403   90.1224    9.3965 C.ar    1  UNL1        0.0012
      5 C          62.0756   90.4508   10.5222 C.ar    1  UNL1        0.0175
      6 C          62.6079   89.3561   11.3986 C.ar    1  UNL1        0.0684
      7 C          62.2049   87.9329   11.1493 C.ar    1  UNL1        0.0682
      8 C          62.7373   86.8381   12.0258 C.ar    1  UNL1        0.2653
      9 O          62.3343   85.4149   11.7765 O.2     1  UNL1       -0.2668
     10 N          63.6726   87.1665   13.1515 N.ar    1  UNL1       -0.2487
     11 C          64.0756   88.5897   13.4008 C.ar    1  UNL1        0.3340
     12 O          65.0109   88.9181   14.5266 O.2     1  UNL1       -0.2462
     13 N          63.5433   89.6845   12.5244 N.ar    1  UNL1       -0.2769
     14 C          64.2049   86.0718   14.0280 C.3     1  UNL1        0.1135
     15 C          63.5916   84.7039   13.9755 C.3     1  UNL1        0.0229
     16 C          64.1330   83.6752   13.0274 C.3     1  UNL1        0.0023
     17 C          63.5197   82.3073   12.9749 C.3     1  UNL1        0.0056
     18 C          62.3651   81.9681   13.8704 C.3     1  UNL1        0.0365
     19 C          61.8238   82.9968   14.8184 C.3     1  UNL1        0.0056
     20 C          62.4371   84.3647   14.8710 C.3     1  UNL1        0.0023
     21 C          61.7518   80.6002   13.8179 C.2     1  UNL1        0.0500
     22 O          62.5844   79.4201   13.4130 O.co2   1  UNL1       -0.5492
     23 O          60.3059   80.4125   14.1703 O.co2   1  UNL1       -0.5492
     24 C          63.9463   91.1076   12.7737 C.3     1  UNL1        0.1379
     25 C          64.4870   91.5103   14.1137 C.ar    1  UNL1        0.0101
     26 C          63.6527   91.3229   15.3462 C.ar    1  UNL1       -0.0017
     27 C          64.1934   91.7256   16.6862 C.ar    1  UNL1       -0.0003
     28 C          65.5683   92.3156   16.7937 C.ar    1  UNL1        0.0045
     29 C          66.4025   92.5030   15.5612 C.ar    1  UNL1        0.0808
     30 C          65.8618   92.1004   14.2212 C.ar    1  UNL1        0.0702
     31 C          67.7774   93.0931   15.6688 C.3     1  UNL1        0.4192
     32 F          69.1522   93.6831   15.7763 F       1  UNL1       -0.1658
     33 F          68.2624   91.8411   16.3375 F       1  UNL1       -0.1658
     34 F          67.2923   94.3451   15.0000 F       1  UNL1       -0.1658
     35 C          66.6960   92.2878   12.9888 C.1     1  UNL1        0.1001
     36 N          67.5303   92.4752   11.7562 N.1     1  UNL1       -0.1908
@<TRIPOS>UNITY_ATOM_ATTR
22 1
charge -1
@<TRIPOS>BOND
     1     1     2    1
     2     2     3   ar
     3     3     4   ar
     4     4     5   ar
     5     5     6   ar
     6     6     7   ar
     7     7     8   ar
     8     8     9    2
     9     8    10   ar
    10    10    14    1
    11    15    14    1
    12    15    16    1
    13    16    17    1
    14    17    18    1
    15    18    21    1
    16    21    22   ar
    17    21    23   ar
    18    18    19    1
    19    19    20    1
    20    10    11   ar
    21    11    12    2
    22    11    13   ar
    23    13    24    1
    24    24    25    1
    25    25    26   ar
    26    26    27   ar
    27    27    28   ar
    28    28    29   ar
    29    29    31    1
    30    31    32    1
    31    31    33    1
    32    31    34    1
    33    29    30   ar
    34    30    35    1
    35    35    36    3
    36     7     2   ar
    37    20    15    1
    38    30    25   ar
    39    13     6   ar
@<TRIPOS>MOLECULE
*****
 36 39 0 0 0
SMALL
GASTEIGER

@<TRIPOS>ATOM
      1 C          61.3714   84.6575    7.4222 C.3     1  UNL1        0.0312
      2 C          61.7946   85.4135    8.6466 C.ar    1  UNL1       -0.0159
      3 C          62.7886   84.8103    9.5943 C.ar    1  UNL1       -0.0040
      4 C          63.2117   85.5663   10.8188 C.ar    1  UNL1        0.0012
      5 C          62.6409   86.9255   11.0956 C.ar    1  UNL1        0.0175
      6 C          61.6470   87.5287   10.1479 C.ar    1  UNL1        0.0684
      7 C          61.2238   86.7727    8.9234 C.ar    1  UNL1        0.0682
      8 C          60.2298   87.3760    7.9757 C.ar    1  UNL1        0.2653
      9 O          59.8067   86.6200    6.7512 O.2     1  UNL1       -0.2668
     10 N          59.6590   88.7352    8.2525 N.ar    1  UNL1       -0.2487
     11 C          60.0822   89.4912    9.4770 C.ar    1  UNL1        0.3340
     12 O          59.5114   90.8505    9.7538 O.2     1  UNL1       -0.2462
     13 N          61.0761   88.8880   10.4247 N.ar    1  UNL1       -0.2769
     14 C          58.6650   89.3385    7.3048 C.3     1  UNL1        0.1135
     15 C          59.1336   90.2333    6.1959 C.3     1  UNL1        0.0229
     16 C          58.1521   91.1049    5.4699 C.3     1  UNL1        0.0023
     17 C          58.6206   91.9998    4.3610 C.3     1  UNL1        0.0056
     18 C          60.0708   92.0230    3.9781 C.3     1  UNL1        0.0365
     19 C          61.0523   91.1515    4.7040 C.3     1  UNL1        0.0056
     20 C          60.5837   90.2566    5.8129 C.3     1  UNL1        0.0023
     21 C          60.5394   92.9179    2.8692 C.2     1  UNL1        0.0500
     22 O          59.8611   94.2342    2.6302 O.co2   1  UNL1       -0.5492
     23 O          61.6864   92.4963    1.9991 O.co2   1  UNL1       -0.5492
     24 C          61.4993   89.6440   11.6492 C.3     1  UNL1        0.1379
     25 C          62.7440   90.4806   11.6213 C.ar    1  UNL1        0.0101
     26 C          63.1931   91.1143   10.3380 C.ar    1  UNL1       -0.0017
     27 C          64.4378   91.9509   10.3101 C.ar    1  UNL1       -0.0003
     28 C          65.2334   92.1539   11.5654 C.ar    1  UNL1        0.0045
     29 C          64.7843   91.5203   12.8486 C.ar    1  UNL1        0.0808
     30 C          63.5396   90.6836   12.8766 C.ar    1  UNL1        0.0702
     31 C          65.5799   91.7232   14.1040 C.3     1  UNL1        0.4192
     32 F          66.3755   91.9262   15.3593 F       1  UNL1       -0.1658
     33 F          65.5613   93.2057   13.8761 F       1  UNL1       -0.1658
     34 F          65.5985   90.2407   14.3319 F       1  UNL1       -0.1658
     35 C          63.0905   90.0500   14.1598 C.1     1  UNL1        0.1001
     36 N          62.6413   89.4163   15.4432 N.1     1  UNL1       -0.1908
@<TRIPOS>UNITY_ATOM_ATTR
22 1
charge -1
@<TRIPOS>BOND
     1     1     2    1
     2     2     3   ar
     3     3     4   ar
     4     4     5   ar
     5     5     6   ar
     6     6     7   ar
     7     7     8   ar
     8     8     9    2
     9     8    10   ar
    10    10    14    1
    11    15    14    1
    12    15    16    1
    13    16    17    1
    14    17    18    1
    15    18    21    1
    16    21    22   ar
    17    21    23   ar
    18    18    19    1
    19    19    20    1
    20    10    11   ar
    21    11    12    2
    22    11    13   ar
    23    13    24    1
    24    24    25    1
    25    25    26   ar
    26    26    27   ar
    27    27    28   ar
    28    28    29   ar
    29    29    31    1
    30    31    32    1
    31    31    33    1
    32    31    34    1
    33    29    30   ar
    34    30    35    1
    35    35    36    3
    36     7     2   ar
    37    20    15    1
    38    30    25   ar
    39    13     6   ar
