@<TRIPOS>MOLECULE
*****
 26 28 0 0 0
SMALL
GASTEIGER

@<TRIPOS>ATOM
      1 C          64.3840   87.0769   14.7164 C.3     1  UNL1        0.2066
      2 C          63.9549   88.1352   13.7439 C.2     1  UNL1        0.3580
      3 N          63.1012   87.7696   12.5660 N.2     1  UNL1       -0.0039
      4 C          62.6721   88.8279   11.5934 C.2     1  UNL1        0.3159
      5 C          63.0966   90.2518   11.7987 C.3     1  UNL1        0.2333
      6 C          63.9503   90.6175   12.9767 C.2     1  UNL1        0.3644
      7 O          64.3748   92.0414   13.1820 O.2     1  UNL1       -0.2422
      8 N          64.3794   89.5592   13.9493 N.am    1  UNL1        0.0289
      9 N          61.8184   88.4622   10.4154 N.pl3   1  UNL1       -0.1888
     10 C          61.8416   87.0619    9.8783 C.3     1  UNL1        0.2343
     11 C          60.9879   86.6962    8.7004 C.3     1  UNL1        0.1929
     12 O          60.1110   87.7309    8.0596 O.3     1  UNL1       -0.3449
     13 C          60.0878   89.1312    8.5968 C.3     1  UNL1        0.1929
     14 C          60.9415   89.4968    9.7747 C.3     1  UNL1        0.2343
     15 N          62.9211   85.0974   13.8852 N.am    1  UNL1       -0.2834
     16 C          64.2422   85.6273   14.3583 C.2     1  UNL1        0.2387
     17 O          65.4215   84.7074   14.4733 O.2     1  UNL1       -0.2741
     18 H          62.1470   85.7010   13.8098 H       1  UNL1        0.1549
     19 C          63.2953   81.2671   10.3939 C.3     1  UNL1        0.0334
     20 C          62.9664   81.7325   11.7815 C.ar    1  UNL1        0.0068
     21 C          63.1082   83.1822   12.1396 C.ar    1  UNL1        0.0126
     22 C          62.7793   83.6476   13.5271 C.ar    1  UNL1        0.0501
     23 C          62.3086   82.6633   14.5565 C.ar    1  UNL1        0.0170
     24 C          62.1668   81.2137   14.1984 C.ar    1  UNL1        0.0306
     25 C          62.4957   80.7483   12.8108 C.ar    1  UNL1        0.1362
     26 F          62.3540   79.2985   12.4527 F       1  UNL1       -0.2045
@<TRIPOS>BOND
     1    19    20    1
     2    20    21   ar
     3    21    22   ar
     4    22    15    1
     5    15    16   am
     6    16    17    2
     7    16     1    1
     8     1     2    1
     9     2     3    1
    10     3     4    2
    11     4     9    1
    12     9    10    1
    13    10    11    1
    14    11    12    1
    15    12    13    1
    16    13    14    1
    17     4     5    1
    18     5     6    1
    19     6     7    2
    20     6     8    1
    21    22    23   ar
    22    23    24   ar
    23    24    25   ar
    24    25    26    1
    25    25    20   ar
    26     8     2    2
    27    14     9    1
    28    15    18    1
@<TRIPOS>MOLECULE
*****
 26 28 0 0 0
SMALL
GASTEIGER

@<TRIPOS>ATOM
      1 C          63.0570   90.5818   12.9644 C.3     1  UNL1        0.2066
      2 C          64.3998   91.2473   13.0267 C.2     1  UNL1        0.3580
      3 N          64.7913   92.2459   11.9782 N.2     1  UNL1       -0.0039
      4 C          66.1341   92.9115   12.0405 C.2     1  UNL1        0.3159
      5 C          67.0855   92.5784   13.1514 C.3     1  UNL1        0.2333
      6 C          66.6940   91.5797   14.1999 C.2     1  UNL1        0.3644
      7 O          67.6454   91.2466   15.3107 O.2     1  UNL1       -0.2422
      8 N          65.3512   90.9141   14.1376 N.am    1  UNL1        0.0289
      9 N          66.5256   93.9102   10.9920 N.pl3   1  UNL1       -0.1888
     10 C          66.2462   95.3686   11.2038 C.3     1  UNL1        0.2343
     11 C          66.6376   96.3672   10.1552 C.3     1  UNL1        0.1929
     12 O          67.3085   95.9074    8.8948 O.3     1  UNL1       -0.3449
     13 C          67.5879   94.4489    8.6831 C.3     1  UNL1        0.1929
     14 C          67.1965   93.4504    9.7316 C.3     1  UNL1        0.2343
     15 N          61.8414   88.5543   11.8867 N.am    1  UNL1       -0.2834
     16 C          62.6624   89.8018   11.7455 C.2     1  UNL1        0.2387
     17 O          63.0887   90.2692   10.3854 O.2     1  UNL1       -0.2741
     18 H          61.5616   88.2475   12.7793 H       1  UNL1        0.1549
     19 C          63.0057   85.1035    8.1804 C.3     1  UNL1        0.0334
     20 C          62.0289   86.0489    8.8145 C.ar    1  UNL1        0.0068
     21 C          62.4235   86.8289   10.0335 C.ar    1  UNL1        0.0126
     22 C          61.4467   87.7743   10.6676 C.ar    1  UNL1        0.0501
     23 C          60.0754   87.9397   10.0829 C.ar    1  UNL1        0.0170
     24 C          59.6808   87.1597    8.8639 C.ar    1  UNL1        0.0306
     25 C          60.6576   86.2143    8.2298 C.ar    1  UNL1        0.1362
     26 F          60.2630   85.4343    7.0108 F       1  UNL1       -0.2045
@<TRIPOS>BOND
     1    19    20    1
     2    20    21   ar
     3    21    22   ar
     4    22    15    1
     5    15    16   am
     6    16    17    2
     7    16     1    1
     8     1     2    1
     9     2     3    1
    10     3     4    2
    11     4     9    1
    12     9    10    1
    13    10    11    1
    14    11    12    1
    15    12    13    1
    16    13    14    1
    17     4     5    1
    18     5     6    1
    19     6     7    2
    20     6     8    1
    21    22    23   ar
    22    23    24   ar
    23    24    25   ar
    24    25    26    1
    25    25    20   ar
    26     8     2    2
    27    14     9    1
    28    15    18    1
@<TRIPOS>MOLECULE
*****
 26 28 0 0 0
SMALL
GASTEIGER

@<TRIPOS>ATOM
      1 C          63.1312   90.6502   12.9805 C.3     1  UNL1        0.2066
      2 C          64.4685   91.3264   13.0480 C.2     1  UNL1        0.3580
      3 N          64.8534   92.3330   12.0048 N.2     1  UNL1       -0.0039
      4 C          66.1906   93.0093   12.0723 C.2     1  UNL1        0.3159
      5 C          67.1429   92.6789   13.1831 C.3     1  UNL1        0.2333
      6 C          66.7579   91.6722   14.2265 C.2     1  UNL1        0.3644
      7 O          67.7102   91.3419   15.3374 O.2     1  UNL1       -0.2422
      8 N          65.4207   90.9960   14.1590 N.am    1  UNL1        0.0289
      9 N          66.5756   94.0159   11.0289 N.pl3   1  UNL1       -0.1888
     10 C          67.2266   93.5644    9.7553 C.3     1  UNL1        0.2343
     11 C          67.6115   94.5711    8.7120 C.3     1  UNL1        0.1929
     12 O          67.3454   96.0292    8.9424 O.3     1  UNL1       -0.3449
     13 C          66.6944   96.4807   10.2161 C.3     1  UNL1        0.1929
     14 C          66.3095   95.4740   11.2593 C.3     1  UNL1        0.2343
     15 N          61.9505   88.5952   11.9162 N.am    1  UNL1       -0.2834
     16 C          62.7545   89.8527   11.7672 C.2     1  UNL1        0.2387
     17 O          63.1818   90.3128   10.4049 O.2     1  UNL1       -0.2741
     18 H          61.6700   88.2933   12.8103 H       1  UNL1        0.1549
     19 C          59.1589   88.0696    7.5652 C.3     1  UNL1        0.0334
     20 C          60.1780   87.5350    8.5273 C.ar    1  UNL1        0.0068
     21 C          60.5547   88.3324    9.7407 C.ar    1  UNL1        0.0126
     22 C          61.5737   87.7977   10.7028 C.ar    1  UNL1        0.0501
     23 C          62.2160   86.4657   10.4517 C.ar    1  UNL1        0.0170
     24 C          61.8393   85.6683    9.2384 C.ar    1  UNL1        0.0306
     25 C          60.8203   86.2029    8.2762 C.ar    1  UNL1        0.1362
     26 F          60.4435   85.4055    7.0628 F       1  UNL1       -0.2045
@<TRIPOS>BOND
     1    19    20    1
     2    20    21   ar
     3    21    22   ar
     4    22    15    1
     5    15    16   am
     6    16    17    2
     7    16     1    1
     8     1     2    1
     9     2     3    1
    10     3     4    2
    11     4     9    1
    12     9    10    1
    13    10    11    1
    14    11    12    1
    15    12    13    1
    16    13    14    1
    17     4     5    1
    18     5     6    1
    19     6     7    2
    20     6     8    1
    21    22    23   ar
    22    23    24   ar
    23    24    25   ar
    24    25    26    1
    25    25    20   ar
    26     8     2    2
    27    14     9    1
    28    15    18    1
@<TRIPOS>MOLECULE
*****
 26 28 0 0 0
SMALL
GASTEIGER

@<TRIPOS>ATOM
      1 C          61.6123   88.9443   11.1673 C.3     1  UNL1        0.2066
      2 C          62.0285   87.5348   10.8670 C.2     1  UNL1        0.3580
      3 N          62.3332   86.5875   11.9894 N.2     1  UNL1       -0.0039
      4 C          62.7493   85.1780   11.6892 C.2     1  UNL1        0.3159
      5 C          62.8607   84.7157   10.2666 C.3     1  UNL1        0.2333
      6 C          62.5560   85.6630    9.1441 C.2     1  UNL1        0.3644
      7 O          62.6674   85.2008    7.7215 O.2     1  UNL1       -0.2422
      8 N          62.1399   87.0725    9.4443 N.am    1  UNL1        0.0289
      9 N          63.0540   84.2307   12.8116 N.pl3   1  UNL1       -0.1888
     10 C          63.7349   84.7307   14.0511 C.3     1  UNL1        0.2343
     11 C          64.0395   83.7834   15.1735 C.3     1  UNL1        0.1929
     12 O          63.6633   82.3361   15.0564 O.3     1  UNL1       -0.3449
     13 C          62.9824   81.8361   13.8170 C.3     1  UNL1        0.1929
     14 C          62.6777   82.7834   12.6946 C.3     1  UNL1        0.2343
     15 N          62.9876   89.4171   13.3202 N.am    1  UNL1       -0.2834
     16 C          62.5166   89.8404   11.9604 C.2     1  UNL1        0.2387
     17 O          62.9500   91.1600   11.3938 O.2     1  UNL1       -0.2741
     18 H          62.7031   88.5510   13.6921 H       1  UNL1        0.1549
     19 C          67.3825   92.1602   13.7202 C.3     1  UNL1        0.0334
     20 C          66.0893   91.6849   14.3133 C.ar    1  UNL1        0.0068
     21 C          65.1850   90.7887   13.5202 C.ar    1  UNL1        0.0126
     22 C          63.8919   90.3133   14.1134 C.ar    1  UNL1        0.0501
     23 C          63.5030   90.7342   15.4996 C.ar    1  UNL1        0.0170
     24 C          64.4073   91.6304   16.2927 C.ar    1  UNL1        0.0306
     25 C          65.7005   92.1057   15.6995 C.ar    1  UNL1        0.1362
     26 F          66.6048   93.0020   16.4927 F       1  UNL1       -0.2045
@<TRIPOS>BOND
     1    19    20    1
     2    20    21   ar
     3    21    22   ar
     4    22    15    1
     5    15    16   am
     6    16    17    2
     7    16     1    1
     8     1     2    1
     9     2     3    1
    10     3     4    2
    11     4     9    1
    12     9    10    1
    13    10    11    1
    14    11    12    1
    15    12    13    1
    16    13    14    1
    17     4     5    1
    18     5     6    1
    19     6     7    2
    20     6     8    1
    21    22    23   ar
    22    23    24   ar
    23    24    25   ar
    24    25    26    1
    25    25    20   ar
    26     8     2    2
    27    14     9    1
    28    15    18    1
@<TRIPOS>MOLECULE
*****
 26 28 0 0 0
SMALL
GASTEIGER

@<TRIPOS>ATOM
      1 C          62.9430   90.2677   12.4594 C.3     1  UNL1        0.2066
      2 C          62.4115   88.9746   11.9156 C.2     1  UNL1        0.3580
      3 N          63.0240   87.6735   12.3421 N.2     1  UNL1       -0.0039
      4 C          62.4925   86.3805   11.7984 C.2     1  UNL1        0.3159
      5 C          61.3486   86.3886   10.8282 C.3     1  UNL1        0.2333
      6 C          60.7361   87.6898   10.4017 C.2     1  UNL1        0.3644
      7 O          59.5921   87.6979    9.4315 O.2     1  UNL1       -0.2422
      8 N          61.2675   88.9828   10.9454 N.am    1  UNL1        0.0289
      9 N          63.1051   85.0793   12.2249 N.pl3   1  UNL1       -0.1888
     10 C          63.0805   83.8996   11.2989 C.3     1  UNL1        0.2343
     11 C          63.6930   82.5985   11.7254 C.3     1  UNL1        0.1929
     12 O          64.3301   82.4772   13.0780 O.3     1  UNL1       -0.3449
     13 C          64.3546   83.6569   14.0040 C.3     1  UNL1        0.1929
     14 C          63.7421   84.9580   13.5775 C.3     1  UNL1        0.2343
     15 N          64.9698   91.8638   12.1522 N.am    1  UNL1       -0.2834
     16 C          63.7690   91.1653   11.5865 C.2     1  UNL1        0.2387
     17 O          63.3941   91.3645   10.1477 O.2     1  UNL1       -0.2741
     18 H          65.2159   91.7331   13.0964 H       1  UNL1        0.1549
     19 C          68.8544   92.5127    8.7626 C.3     1  UNL1        0.0334
     20 C          67.7381   93.0859    9.5844 C.ar    1  UNL1        0.0068
     21 C          66.9121   92.1883   10.4574 C.ar    1  UNL1        0.0126
     22 C          65.7958   92.7614   11.2792 C.ar    1  UNL1        0.0501
     23 C          65.5055   94.2321   11.2280 C.ar    1  UNL1        0.0170
     24 C          66.3314   95.1297   10.3551 C.ar    1  UNL1        0.0306
     25 C          67.4477   94.5566    9.5333 C.ar    1  UNL1        0.1362
     26 F          68.2737   95.4542    8.6603 F       1  UNL1       -0.2045
@<TRIPOS>BOND
     1    19    20    1
     2    20    21   ar
     3    21    22   ar
     4    22    15    1
     5    15    16   am
     6    16    17    2
     7    16     1    1
     8     1     2    1
     9     2     3    1
    10     3     4    2
    11     4     9    1
    12     9    10    1
    13    10    11    1
    14    11    12    1
    15    12    13    1
    16    13    14    1
    17     4     5    1
    18     5     6    1
    19     6     7    2
    20     6     8    1
    21    22    23   ar
    22    23    24   ar
    23    24    25   ar
    24    25    26    1
    25    25    20   ar
    26     8     2    2
    27    14     9    1
    28    15    18    1
@<TRIPOS>MOLECULE
*****
 26 28 0 0 0
SMALL
GASTEIGER

@<TRIPOS>ATOM
      1 C          63.2579   90.4515   13.6023 C.3     1  UNL1        0.2066
      2 C          64.4235   91.3910   13.6954 C.2     1  UNL1        0.3580
      3 N          64.9722   92.0306   12.4546 N.2     1  UNL1       -0.0039
      4 C          66.1379   92.9701   12.5477 C.2     1  UNL1        0.3159
      5 C          66.7548   93.2700   13.8817 C.3     1  UNL1        0.2333
      6 C          66.2060   92.6303   15.1226 C.2     1  UNL1        0.3644
      7 O          66.8229   92.9302   16.4565 O.2     1  UNL1       -0.2422
      8 N          65.0404   91.6908   15.0295 N.am    1  UNL1        0.0289
      9 N          66.6866   93.6098   11.3068 N.pl3   1  UNL1       -0.1888
     10 C          66.4751   95.0743   11.0616 C.3     1  UNL1        0.2343
     11 C          67.0238   95.7139    9.8207 C.3     1  UNL1        0.1929
     12 O          67.7841   94.8889    8.8250 O.3     1  UNL1       -0.3449
     13 C          67.9956   93.4243    9.0703 C.3     1  UNL1        0.1929
     14 C          67.4469   92.7847   10.3111 C.3     1  UNL1        0.2343
     15 N          63.4899   87.9515   12.9347 N.am    1  UNL1       -0.2834
     16 C          63.4214   89.0125   13.9927 C.2     1  UNL1        0.2387
     17 O          63.5163   88.6345   15.4412 O.2     1  UNL1       -0.2741
     18 H          63.4277   88.1995   11.9840 H       1  UNL1        0.1549
     19 C          62.6008   82.9132   12.0259 C.3     1  UNL1        0.0334
     20 C          63.2089   83.9933   12.8707 C.ar    1  UNL1        0.0068
     21 C          63.0454   85.4323   12.4803 C.ar    1  UNL1        0.0126
     22 C          63.6534   86.5124   13.3251 C.ar    1  UNL1        0.0501
     23 C          64.4249   86.1534   14.5604 C.ar    1  UNL1        0.0170
     24 C          64.5884   84.7144   14.9508 C.ar    1  UNL1        0.0306
     25 C          63.9804   83.6344   14.1060 C.ar    1  UNL1        0.1362
     26 F          64.1439   82.1953   14.4965 F       1  UNL1       -0.2045
@<TRIPOS>BOND
     1    19    20    1
     2    20    21   ar
     3    21    22   ar
     4    22    15    1
     5    15    16   am
     6    16    17    2
     7    16     1    1
     8     1     2    1
     9     2     3    1
    10     3     4    2
    11     4     9    1
    12     9    10    1
    13    10    11    1
    14    11    12    1
    15    12    13    1
    16    13    14    1
    17     4     5    1
    18     5     6    1
    19     6     7    2
    20     6     8    1
    21    22    23   ar
    22    23    24   ar
    23    24    25   ar
    24    25    26    1
    25    25    20   ar
    26     8     2    2
    27    14     9    1
    28    15    18    1
@<TRIPOS>MOLECULE
*****
 26 28 0 0 0
SMALL
GASTEIGER

@<TRIPOS>ATOM
      1 C          62.0225   88.6656   11.0609 C.3     1  UNL1        0.2066
      2 C          62.7954   89.5589   11.9854 C.2     1  UNL1        0.3580
      3 N          63.6945   90.6206   11.4247 N.2     1  UNL1       -0.0039
      4 C          64.4674   91.5139   12.3492 C.2     1  UNL1        0.3159
      5 C          64.3412   91.3455   13.8343 C.3     1  UNL1        0.2333
      6 C          63.4421   90.2838   14.3951 C.2     1  UNL1        0.3644
      7 O          63.3159   90.1154   15.8802 O.2     1  UNL1       -0.2422
      8 N          62.6692   89.3905   13.4706 N.am    1  UNL1        0.0289
      9 N          65.3665   92.5757   11.7885 N.pl3   1  UNL1       -0.1888
     10 C          65.8813   92.4579   10.3845 C.3     1  UNL1        0.2343
     11 C          66.7803   93.5196    9.8238 C.3     1  UNL1        0.1929
     12 O          67.1647   94.6991   10.6671 O.3     1  UNL1       -0.3449
     13 C          66.6500   94.8168   12.0711 C.3     1  UNL1        0.1929
     14 C          65.7509   93.7551   12.6317 C.3     1  UNL1        0.2343
     15 N          62.9755   86.5490   12.2278 N.am    1  UNL1       -0.2834
     16 C          61.9723   87.1880   11.3138 C.2     1  UNL1        0.2387
     17 O          60.9189   86.3493   10.6527 O.2     1  UNL1       -0.2741
     18 H          63.6668   87.0994   12.6617 H       1  UNL1        0.1549
     19 C          63.4395   81.6699   10.5017 C.3     1  UNL1        0.0334
     20 C          63.1572   82.6317   11.6176 C.ar    1  UNL1        0.0068
     21 C          63.2075   84.1094   11.3648 C.ar    1  UNL1        0.0126
     22 C          62.9252   85.0712   12.4806 C.ar    1  UNL1        0.0501
     23 C          62.5928   84.5554   13.8493 C.ar    1  UNL1        0.0170
     24 C          62.5425   83.0778   14.1021 C.ar    1  UNL1        0.0306
     25 C          62.8248   82.1159   12.9862 C.ar    1  UNL1        0.1362
     26 F          62.7745   80.6382   13.2391 F       1  UNL1       -0.2045
@<TRIPOS>BOND
     1    19    20    1
     2    20    21   ar
     3    21    22   ar
     4    22    15    1
     5    15    16   am
     6    16    17    2
     7    16     1    1
     8     1     2    1
     9     2     3    1
    10     3     4    2
    11     4     9    1
    12     9    10    1
    13    10    11    1
    14    11    12    1
    15    12    13    1
    16    13    14    1
    17     4     5    1
    18     5     6    1
    19     6     7    2
    20     6     8    1
    21    22    23   ar
    22    23    24   ar
    23    24    25   ar
    24    25    26    1
    25    25    20   ar
    26     8     2    2
    27    14     9    1
    28    15    18    1
@<TRIPOS>MOLECULE
*****
 26 28 0 0 0
SMALL
GASTEIGER

@<TRIPOS>ATOM
      1 C          64.1584   90.7207   13.5565 C.3     1  UNL1        0.2066
      2 C          63.5176   89.6416   12.7349 C.2     1  UNL1        0.3580
      3 N          63.6690   88.2041   13.1356 N.2     1  UNL1       -0.0039
      4 C          63.0282   87.1250   12.3140 C.2     1  UNL1        0.3159
      5 C          62.2360   87.4834   11.0918 C.3     1  UNL1        0.2333
      6 C          62.0844   88.9210   10.6911 C.2     1  UNL1        0.3644
      7 O          61.2922   89.2794    9.4689 O.2     1  UNL1       -0.2422
      8 N          62.7252   90.0001   11.5127 N.am    1  UNL1        0.0289
      9 N          63.1797   85.6874   12.7147 N.pl3   1  UNL1       -0.1888
     10 C          62.6001   84.6039   11.8545 C.3     1  UNL1        0.2343
     11 C          62.7516   83.1664   12.2552 C.3     1  UNL1        0.1929
     12 O          63.4828   82.8124   13.5162 O.3     1  UNL1       -0.3449
     13 C          64.0625   83.8959   14.3764 C.3     1  UNL1        0.1929
     14 C          63.9109   85.3334   13.9757 C.3     1  UNL1        0.2343
     15 N          65.0132   91.8700   11.3889 N.am    1  UNL1       -0.2834
     16 C          64.9554   91.8002   12.8862 C.2     1  UNL1        0.2387
     17 O          65.6946   92.8100   13.7132 O.2     1  UNL1       -0.2741
     18 H          64.5281   91.2072   10.8461 H       1  UNL1        0.1549
     19 C          65.5882   96.8507   10.0243 C.3     1  UNL1        0.0334
     20 C          66.0978   95.4399   10.0364 C.ar    1  UNL1        0.0068
     21 C          65.3008   94.3604   10.7066 C.ar    1  UNL1        0.0126
     22 C          65.8103   92.9496   10.7187 C.ar    1  UNL1        0.0501
     23 C          67.1169   92.6184   10.0605 C.ar    1  UNL1        0.0170
     24 C          67.9139   93.6980    9.3903 C.ar    1  UNL1        0.0306
     25 C          67.4043   95.1088    9.3783 C.ar    1  UNL1        0.1362
     26 F          68.2014   96.1884    8.7080 F       1  UNL1       -0.2045
@<TRIPOS>BOND
     1    19    20    1
     2    20    21   ar
     3    21    22   ar
     4    22    15    1
     5    15    16   am
     6    16    17    2
     7    16     1    1
     8     1     2    1
     9     2     3    1
    10     3     4    2
    11     4     9    1
    12     9    10    1
    13    10    11    1
    14    11    12    1
    15    12    13    1
    16    13    14    1
    17     4     5    1
    18     5     6    1
    19     6     7    2
    20     6     8    1
    21    22    23   ar
    22    23    24   ar
    23    24    25   ar
    24    25    26    1
    25    25    20   ar
    26     8     2    2
    27    14     9    1
    28    15    18    1
@<TRIPOS>MOLECULE
*****
 26 28 0 0 0
SMALL
GASTEIGER

@<TRIPOS>ATOM
      1 C          61.3599   88.7014   10.9107 C.3     1  UNL1        0.2066
      2 C          61.9080   87.3252   10.6748 C.2     1  UNL1        0.3580
      3 N          62.2029   86.4257   11.8384 N.2     1  UNL1       -0.0039
      4 C          62.7509   85.0495   11.6026 C.2     1  UNL1        0.3159
      5 C          63.0040   84.5727   10.2031 C.3     1  UNL1        0.2333
      6 C          62.7091   85.4721    9.0394 C.2     1  UNL1        0.3644
      7 O          62.9622   84.9953    7.6400 O.2     1  UNL1       -0.2422
      8 N          62.1611   86.8484    9.2753 N.am    1  UNL1        0.0289
      9 N          63.0459   84.1501   12.7663 N.pl3   1  UNL1       -0.1888
     10 C          62.6639   82.7007   12.7096 C.3     1  UNL1        0.2343
     11 C          62.9588   81.8013   13.8733 C.3     1  UNL1        0.1929
     12 O          63.6358   82.3514   15.0936 O.3     1  UNL1       -0.3449
     13 C          64.0178   83.8008   15.1502 C.3     1  UNL1        0.1929
     14 C          63.7229   84.7001   13.9866 C.3     1  UNL1        0.2343
     15 N          63.2948   89.6700   12.3488 N.am    1  UNL1       -0.2834
     16 C          62.2879   89.8304   11.2486 C.2     1  UNL1        0.2387
     17 O          62.2089   91.1200   10.4864 O.2     1  UNL1       -0.2741
     18 H          63.3466   88.8237   12.8491 H       1  UNL1        0.1549
     19 C          66.1605   92.2511   15.8310 C.3     1  UNL1        0.0334
     20 C          65.6555   92.0896   14.4278 C.ar    1  UNL1        0.0068
     21 C          64.7277   90.9606   14.0899 C.ar    1  UNL1        0.0126
     22 C          64.2227   90.7992   12.6867 C.ar    1  UNL1        0.0501
     23 C          64.6456   91.7667   11.6215 C.ar    1  UNL1        0.0170
     24 C          65.5735   92.8958   11.9594 C.ar    1  UNL1        0.0306
     25 C          66.0785   93.0572   13.3626 C.ar    1  UNL1        0.1362
     26 F          67.0064   94.1863   13.7005 F       1  UNL1       -0.2045
@<TRIPOS>BOND
     1    19    20    1
     2    20    21   ar
     3    21    22   ar
     4    22    15    1
     5    15    16   am
     6    16    17    2
     7    16     1    1
     8     1     2    1
     9     2     3    1
    10     3     4    2
    11     4     9    1
    12     9    10    1
    13    10    11    1
    14    11    12    1
    15    12    13    1
    16    13    14    1
    17     4     5    1
    18     5     6    1
    19     6     7    2
    20     6     8    1
    21    22    23   ar
    22    23    24   ar
    23    24    25   ar
    24    25    26    1
    25    25    20   ar
    26     8     2    2
    27    14     9    1
    28    15    18    1
