@<TRIPOS>MOLECULE
*****
 19 19 0 0 0
SMALL
GASTEIGER

@<TRIPOS>ATOM
      1 N          63.4746   85.1498   13.2828 N.am    1  UNL1       -0.2574
      2 C          62.7886   86.0923   12.3389 C.2     1  UNL1        0.2459
      3 O          61.7306   85.5817   11.4062 O.2     1  UNL1       -0.2732
      4 C          63.5821   82.7912   12.1985 C.ar    1  UNL1       -0.0088
      5 C          63.2101   81.3381   12.2097 C.ar    1  UNL1       -0.0031
      6 C          62.3586   80.7905   13.3165 C.ar    1  UNL1       -0.0006
      7 C          61.8791   81.6959   14.4121 C.ar    1  UNL1       -0.0030
      8 C          62.2511   83.1489   14.4008 C.ar    1  UNL1       -0.0085
      9 C          61.7715   84.0544   15.4964 C.3     1  UNL1        0.0323
     10 C          63.1026   83.6966   13.2940 C.ar    1  UNL1        0.0459
     11 C          63.8506   83.5346    9.7236 C.3     1  UNL1        0.0051
     12 C          64.4336   83.3389   11.0917 C.3     1  UNL1        0.0276
     13 C          63.1605   87.5454   12.3277 C.3     1  UNL1        0.1799
     14 CL         62.5257   88.4745   11.3358 Cl      1  UNL1       -0.1033
     15 C          64.5326   85.6603   14.2155 C.3     1  UNL1        0.1094
     16 C          65.7917   84.8724   14.4247 C.3     1  UNL1        0.0245
     17 C          64.3314   86.9588   14.9391 C.3     1  UNL1        0.1623
     18 O          63.4189   87.0214   16.1280 O.3     1  UNL1       -0.3493
     19 C          63.1473   88.3363   16.7966 C.3     1  UNL1        0.1742
@<TRIPOS>BOND
     1    11    12    1
     2    12     4    1
     3     4     5   ar
     4     5     6   ar
     5     6     7   ar
     6     7     8   ar
     7     8     9    1
     8     8    10   ar
     9    10     1    1
    10     1     2   am
    11     2     3    2
    12     2    13    1
    13    13    14    1
    14     1    15    1
    15    15    16    1
    16    15    17    1
    17    17    18    1
    18    18    19    1
    19    10     4   ar
@<TRIPOS>MOLECULE
*****
 19 19 0 0 0
SMALL
GASTEIGER

@<TRIPOS>ATOM
      1 N          66.4738   93.4532   11.2632 N.am    1  UNL1       -0.2574
      2 C          67.5797   92.9954   10.3592 C.2     1  UNL1        0.2459
      3 O          68.0165   91.5605   10.3758 O.2     1  UNL1       -0.2732
      4 C          66.3663   92.2299   13.5528 C.ar    1  UNL1       -0.0088
      5 C          65.6971   91.2528   14.4734 C.ar    1  UNL1       -0.0031
      6 C          64.4663   90.5220   14.0251 C.ar    1  UNL1       -0.0006
      7 C          63.9047   90.7682   12.6562 C.ar    1  UNL1       -0.0030
      8 C          64.5738   91.7452   11.7356 C.ar    1  UNL1       -0.0085
      9 C          64.0122   91.9915   10.3667 C.3     1  UNL1        0.0323
     10 C          65.8046   92.4761   12.1839 C.ar    1  UNL1        0.0459
     11 C          67.7447   93.3713   15.4362 C.3     1  UNL1        0.0051
     12 C          67.5971   92.9607   14.0011 C.3     1  UNL1        0.0276
     13 C          68.2489   93.9725    9.4385 C.3     1  UNL1        0.1799
     14 CL         67.8495   94.0363    7.9941 Cl      1  UNL1       -0.1033
     15 C          66.0370   94.8881   11.2466 C.3     1  UNL1        0.1094
     16 C          66.4141   95.8000   12.3763 C.3     1  UNL1        0.0245
     17 C          65.2230   95.4110   10.1003 C.3     1  UNL1        0.1623
     18 O          65.5563   96.7392    9.4881 O.3     1  UNL1       -0.3493
     19 C          65.7429   96.8555    8.0044 C.3     1  UNL1        0.1742
@<TRIPOS>BOND
     1    11    12    1
     2    12     4    1
     3     4     5   ar
     4     5     6   ar
     5     6     7   ar
     6     7     8   ar
     7     8     9    1
     8     8    10   ar
     9    10     1    1
    10     1     2   am
    11     2     3    2
    12     2    13    1
    13    13    14    1
    14     1    15    1
    15    15    16    1
    16    15    17    1
    17    17    18    1
    18    18    19    1
    19    10     4   ar
@<TRIPOS>MOLECULE
*****
 19 19 0 0 0
SMALL
GASTEIGER

@<TRIPOS>ATOM
      1 N          64.0868   89.9523   14.1888 N.am    1  UNL1       -0.2574
      2 C          63.3787   90.3862   15.4379 C.2     1  UNL1        0.2459
      3 O          63.4645   91.8134   15.8914 O.2     1  UNL1       -0.2732
      4 C          64.3249   91.4982   12.1142 C.ar    1  UNL1       -0.0088
      5 C          65.1189   92.4914   11.3187 C.ar    1  UNL1       -0.0031
      6 C          66.4687   92.9322   11.8021 C.ar    1  UNL1       -0.0006
      7 C          67.0246   92.3797   13.0810 C.ar    1  UNL1       -0.0030
      8 C          66.2307   91.3864   13.8765 C.ar    1  UNL1       -0.0085
      9 C          66.7865   90.8339   15.1555 C.3     1  UNL1        0.0323
     10 C          64.8808   90.9456   13.3932 C.ar    1  UNL1        0.0459
     11 C          62.7182   90.9036   10.1611 C.3     1  UNL1        0.0051
     12 C          62.9751   91.0574   11.6309 C.3     1  UNL1        0.0276
     13 C          62.5848   89.3928   16.2335 C.3     1  UNL1        0.1799
     14 CL         63.2369   88.6342   17.3512 Cl      1  UNL1       -0.1033
     15 C          64.0011   88.5251   13.7353 C.3     1  UNL1        0.1094
     16 C          63.2882   88.1849   12.4602 C.3     1  UNL1        0.0245
     17 C          64.6282   87.4380   14.5569 C.3     1  UNL1        0.1623
     18 O          63.8463   86.2012   14.8866 O.3     1  UNL1       -0.3493
     19 C          64.2799   84.8724   14.3423 C.3     1  UNL1        0.1742
@<TRIPOS>BOND
     1    11    12    1
     2    12     4    1
     3     4     5   ar
     4     5     6   ar
     5     6     7   ar
     6     7     8   ar
     7     8     9    1
     8     8    10   ar
     9    10     1    1
    10     1     2   am
    11     2     3    2
    12     2    13    1
    13    13    14    1
    14     1    15    1
    15    15    16    1
    16    15    17    1
    17    17    18    1
    18    18    19    1
    19    10     4   ar
@<TRIPOS>MOLECULE
*****
 19 19 0 0 0
SMALL
GASTEIGER

@<TRIPOS>ATOM
      1 N          63.5135   84.8805   13.7685 N.am    1  UNL1       -0.2574
      2 C          62.5658   84.2084   14.7173 C.2     1  UNL1        0.2459
      3 O          61.5623   83.2204   14.2007 O.2     1  UNL1       -0.2732
      4 C          62.7550   85.4969   11.3613 C.ar    1  UNL1       -0.0088
      5 C          62.6992   85.1810    9.8960 C.ar    1  UNL1       -0.0031
      6 C          63.3461   83.9330    9.3726 C.ar    1  UNL1       -0.0006
      7 C          64.0488   83.0008   10.3145 C.ar    1  UNL1       -0.0030
      8 C          64.1046   83.3167   11.7798 C.ar    1  UNL1       -0.0085
      9 C          64.8074   82.3845   12.7218 C.3     1  UNL1        0.0323
     10 C          63.4577   84.5647   12.3032 C.ar    1  UNL1        0.0459
     11 C          62.2842   88.0436   11.1551 C.3     1  UNL1        0.0051
     12 C          62.1080   86.7449   11.8847 C.3     1  UNL1        0.0276
     13 C          62.6216   84.5242   16.1826 C.3     1  UNL1        0.1799
     14 CL         61.8221   85.6671   16.7345 Cl      1  UNL1       -0.1033
     15 C          64.5170   85.8685   14.2851 C.3     1  UNL1        0.1094
     16 C          65.8578   85.3954   14.7630 C.3     1  UNL1        0.0245
     17 C          64.1797   87.3296   14.3238 C.3     1  UNL1        0.1623
     18 O          63.7406   87.9642   15.6101 O.3     1  UNL1       -0.3493
     19 C          63.5060   89.4443   15.6744 C.3     1  UNL1        0.1742
@<TRIPOS>BOND
     1    11    12    1
     2    12     4    1
     3     4     5   ar
     4     5     6   ar
     5     6     7   ar
     6     7     8   ar
     7     8     9    1
     8     8    10   ar
     9    10     1    1
    10     1     2   am
    11     2     3    2
    12     2    13    1
    13    13    14    1
    14     1    15    1
    15    15    16    1
    16    15    17    1
    17    17    18    1
    18    18    19    1
    19    10     4   ar
@<TRIPOS>MOLECULE
*****
 19 19 0 0 0
SMALL
GASTEIGER

@<TRIPOS>ATOM
      1 N          62.3012   87.1524   11.2005 N.am    1  UNL1       -0.2574
      2 C          62.6526   85.9578   12.0369 C.2     1  UNL1        0.2459
      3 O          62.0388   84.6232   11.7336 O.2     1  UNL1       -0.2732
      4 C          59.9756   87.6377   10.1488 C.ar    1  UNL1       -0.0088
      5 C          59.0106   87.4976    9.0091 C.ar    1  UNL1       -0.0031
      6 C          59.4060   86.7320    7.7813 C.ar    1  UNL1       -0.0006
      7 C          60.7665   86.1066    7.6932 C.ar    1  UNL1       -0.0030
      8 C          61.7315   86.2467    8.8330 C.ar    1  UNL1       -0.0085
      9 C          63.0921   85.6212    8.7449 C.3     1  UNL1        0.0323
     10 C          61.3361   87.0123   10.0608 C.ar    1  UNL1        0.0459
     11 C          59.5612   89.9030   11.3517 C.3     1  UNL1        0.0051
     12 C          59.5802   88.4033   11.3766 C.3     1  UNL1        0.0276
     13 C          63.6177   86.0980   13.1767 C.3     1  UNL1        0.1799
     14 CL         64.1689   84.8747   13.8474 Cl      1  UNL1       -0.1033
     15 C          62.9150   88.4870   11.5038 C.3     1  UNL1        0.1094
     16 C          62.9388   89.5577   10.4535 C.3     1  UNL1        0.0245
     17 C          63.5049   88.7511   12.8574 C.3     1  UNL1        0.1623
     18 O          62.8131   89.6821   13.8085 O.3     1  UNL1       -0.3493
     19 C          63.4168   89.9670   15.1517 C.3     1  UNL1        0.1742
@<TRIPOS>BOND
     1    11    12    1
     2    12     4    1
     3     4     5   ar
     4     5     6   ar
     5     6     7   ar
     6     7     8   ar
     7     8     9    1
     8     8    10   ar
     9    10     1    1
    10     1     2   am
    11     2     3    2
    12     2    13    1
    13    13    14    1
    14     1    15    1
    15    15    16    1
    16    15    17    1
    17    17    18    1
    18    18    19    1
    19    10     4   ar
@<TRIPOS>MOLECULE
*****
 19 19 0 0 0
SMALL
GASTEIGER

@<TRIPOS>ATOM
      1 N          62.2938   87.3065   11.1930 N.am    1  UNL1       -0.2574
      2 C          62.6617   86.1739   12.1050 C.2     1  UNL1        0.2459
      3 O          62.0845   84.8085   11.8757 O.2     1  UNL1       -0.2732
      4 C          61.8014   86.3002    8.8488 C.ar    1  UNL1       -0.0088
      5 C          60.8563   86.0675    7.7075 C.ar    1  UNL1       -0.0031
      6 C          59.4585   86.6083    7.7690 C.ar    1  UNL1       -0.0006
      7 C          59.0058   87.3818    8.9718 C.ar    1  UNL1       -0.0030
      8 C          59.9509   87.6145   10.1131 C.ar    1  UNL1       -0.0085
      9 C          59.4983   88.3880   11.3160 C.3     1  UNL1        0.0323
     10 C          61.3487   87.0737   10.0516 C.ar    1  UNL1        0.0459
     11 C          63.4390   84.2844    8.9163 C.3     1  UNL1        0.0051
     12 C          63.1992   85.7594    8.7873 C.3     1  UNL1        0.0276
     13 C          63.6068   86.4066   13.2464 C.3     1  UNL1        0.1799
     14 CL         64.1604   85.2412   14.0113 Cl      1  UNL1       -0.1033
     15 C          62.8711   88.6718   11.4222 C.3     1  UNL1        0.1094
     16 C          62.7974   89.7085   10.3407 C.3     1  UNL1        0.0245
     17 C          63.5219   89.0005   12.7331 C.3     1  UNL1        0.1623
     18 O          62.7730   89.7906   13.7651 O.3     1  UNL1       -0.3493
     19 C          63.3212   89.9182   15.1554 C.3     1  UNL1        0.1742
@<TRIPOS>BOND
     1    11    12    1
     2    12     4    1
     3     4     5   ar
     4     5     6   ar
     5     6     7   ar
     6     7     8   ar
     7     8     9    1
     8     8    10   ar
     9    10     1    1
    10     1     2   am
    11     2     3    2
    12     2    13    1
    13    13    14    1
    14     1    15    1
    15    15    16    1
    16    15    17    1
    17    17    18    1
    18    18    19    1
    19    10     4   ar
@<TRIPOS>MOLECULE
*****
 19 19 0 0 0
SMALL
GASTEIGER

@<TRIPOS>ATOM
      1 N          63.3293   85.3138   13.2043 N.am    1  UNL1       -0.2574
      2 C          64.2476   85.9252   14.2206 C.2     1  UNL1        0.2459
      3 O          64.9318   85.0550   15.2329 O.2     1  UNL1       -0.2732
      4 C          63.6770   82.9838   12.1086 C.ar    1  UNL1       -0.0088
      5 C          63.4428   81.5023   12.1045 C.ar    1  UNL1       -0.0031
      6 C          62.6268   80.8690   13.1922 C.ar    1  UNL1       -0.0006
      7 C          62.0449   81.7172   14.2839 C.ar    1  UNL1       -0.0030
      8 C          62.2791   83.1988   14.2879 C.ar    1  UNL1       -0.0085
      9 C          61.6972   84.0471   15.3796 C.3     1  UNL1        0.0323
     10 C          63.0951   83.8321   13.2002 C.ar    1  UNL1        0.0459
     11 C          63.9812   83.6318    9.6111 C.3     1  UNL1        0.0051
     12 C          64.4930   83.6172   11.0209 C.3     1  UNL1        0.0276
     13 C          64.4817   87.4068   14.2247 C.3     1  UNL1        0.1799
     14 CL         63.9874   88.2411   15.3690 Cl      1  UNL1       -0.1033
     15 C          62.6451   86.1840   12.1921 C.3     1  UNL1        0.1094
     16 C          61.5476   85.6210   11.3385 C.3     1  UNL1        0.0245
     17 C          63.0584   87.6172   12.0334 C.3     1  UNL1        0.1623
     18 O          62.0384   88.6565   11.6736 O.3     1  UNL1       -0.3493
     19 C          62.1164   89.3572   10.3497 C.3     1  UNL1        0.1742
@<TRIPOS>BOND
     1    11    12    1
     2    12     4    1
     3     4     5   ar
     4     5     6   ar
     5     6     7   ar
     6     7     8   ar
     7     8     9    1
     8     8    10   ar
     9    10     1    1
    10     1     2   am
    11     2     3    2
    12     2    13    1
    13    13    14    1
    14     1    15    1
    15    15    16    1
    16    15    17    1
    17    17    18    1
    18    18    19    1
    19    10     4   ar
@<TRIPOS>MOLECULE
*****
 19 19 0 0 0
SMALL
GASTEIGER

@<TRIPOS>ATOM
      1 N          60.1090   94.2126   -0.1833 N.am    1  UNL1       -0.2574
      2 C          59.6101   95.5966    0.1089 C.2     1  UNL1        0.2459
      3 O          60.3102   96.4468    1.1273 O.2     1  UNL1       -0.2732
      4 C          61.1371   92.9724    1.8551 C.ar    1  UNL1       -0.0088
      5 C          62.3361   92.4384    2.5812 C.ar    1  UNL1       -0.0031
      6 C          63.7060   92.6107    1.9951 C.ar    1  UNL1       -0.0006
      7 C          63.8770   93.3169    0.6828 C.ar    1  UNL1       -0.0030
      8 C          62.6780   93.8509   -0.0433 C.ar    1  UNL1       -0.0085
      9 C          62.8489   94.5571   -1.3556 C.3     1  UNL1        0.0323
     10 C          61.3081   93.6786    0.5428 C.ar    1  UNL1        0.0459
     11 C          59.6070   92.5395    3.9096 C.3     1  UNL1        0.0051
     12 C          59.7671   92.8001    2.4412 C.3     1  UNL1        0.0276
     13 C          58.4111   96.1306   -0.6173 C.3     1  UNL1        0.1799
     14 CL         58.5840   96.8548   -1.9194 Cl      1  UNL1       -0.1033
     15 C          59.4090   93.3624   -1.2017 C.3     1  UNL1        0.1094
     16 C          59.7825   93.4672   -2.6507 C.3     1  UNL1        0.0245
     17 C          58.3353   92.4075   -0.7712 C.3     1  UNL1        0.1623
     18 O          56.9117   92.8713   -0.6794 O.3     1  UNL1       -0.3493
     19 C          56.1635   93.2464   -1.9241 C.3     1  UNL1        0.1742
@<TRIPOS>BOND
     1    11    12    1
     2    12     4    1
     3     4     5   ar
     4     5     6   ar
     5     6     7   ar
     6     7     8   ar
     7     8     9    1
     8     8    10   ar
     9    10     1    1
    10     1     2   am
    11     2     3    2
    12     2    13    1
    13    13    14    1
    14     1    15    1
    15    15    16    1
    16    15    17    1
    17    17    18    1
    18    18    19    1
    19    10     4   ar
@<TRIPOS>MOLECULE
*****
 19 19 0 0 0
SMALL
GASTEIGER

@<TRIPOS>ATOM
      1 N          61.5391   88.5780   11.0768 N.am    1  UNL1       -0.2574
      2 C          60.1362   88.8387   11.5393 C.2     1  UNL1        0.2459
      3 O          59.0665   87.8135   11.3050 O.2     1  UNL1       -0.2732
      4 C          61.4788   87.0920    8.9464 C.ar    1  UNL1       -0.0088
      5 C          61.8121   85.8061    8.2497 C.ar    1  UNL1       -0.0031
      6 C          62.5389   84.7204    8.9865 C.ar    1  UNL1       -0.0006
      7 C          62.9325   84.9205   10.4200 C.ar    1  UNL1       -0.0030
      8 C          62.5992   86.2063   11.1167 C.ar    1  UNL1       -0.0085
      9 C          62.9927   86.4065   12.5503 C.3     1  UNL1        0.0323
     10 C          61.8724   87.2921   10.3800 C.ar    1  UNL1        0.0459
     11 C          59.3360   87.9633    7.7635 C.3     1  UNL1        0.0051
     12 C          60.7520   88.1777    8.2096 C.3     1  UNL1        0.0276
     13 C          59.8029   90.1246   12.2361 C.3     1  UNL1        0.1799
     14 CL         58.8602   91.1011   11.5976 Cl      1  UNL1       -0.1033
     15 C          62.6087   89.6031   11.3110 C.3     1  UNL1        0.1094
     16 C          62.8920   90.6433   10.2681 C.3     1  UNL1        0.0245
     17 C          63.3951   89.5881   12.5883 C.3     1  UNL1        0.1623
     18 O          62.6954   89.7732   13.9021 O.3     1  UNL1       -0.3493
     19 C          63.4903   89.8412   15.1723 C.3     1  UNL1        0.1742
@<TRIPOS>BOND
     1    11    12    1
     2    12     4    1
     3     4     5   ar
     4     5     6   ar
     5     6     7   ar
     6     7     8   ar
     7     8     9    1
     8     8    10   ar
     9    10     1    1
    10     1     2   am
    11     2     3    2
    12     2    13    1
    13    13    14    1
    14     1    15    1
    15    15    16    1
    16    15    17    1
    17    17    18    1
    18    18    19    1
    19    10     4   ar
