@<TRIPOS>MOLECULE
*****
 34 39 0 0 0
SMALL
GASTEIGER

@<TRIPOS>ATOM
      1 C          59.1844   90.4357    5.6802 C.2     1  UNL1        0.1040
      2 N          57.7825   90.9594    5.5778 N.2     1  UNL1       -0.1483
      3 N          57.7643   92.0336    4.5310 N.2     1  UNL1       -0.1520
      4 C          59.1550   92.1738    3.9865 C.2     1  UNL1        0.0860
      5 C          59.7354   93.0732    2.9358 C.3     1  UNL1        0.0697
      6 C          61.1936   92.9850    2.5953 C.2     1  UNL1       -0.0378
      7 C          62.0712   91.9975    3.3055 C.2     1  UNL1       -0.0080
      8 C          61.4908   91.0981    4.3563 C.2     1  UNL1        0.0022
      9 C          60.0326   91.1863    4.6968 C.2     1  UNL1        0.0350
     10 C          61.7741   93.8845    1.5444 C.3     1  UNL1        0.0315
     11 C          62.5078   95.1373    1.1678 C.3     1  UNL1        0.0179
     12 C          62.0458   94.1893    0.1011 C.3     1  UNL1        0.0927
     13 C          61.3876   92.9575   -0.4460 C.2     1  UNL1        0.2293
     14 O          60.7237   91.8806    0.3601 O.2     1  UNL1       -0.2744
     15 N          61.5098   92.9915   -1.9406 N.am    1  UNL1       -0.2839
     16 C          62.2436   94.2444   -2.3173 C.ar    1  UNL1        0.0467
     17 C          62.6529   94.8068   -3.6462 C.ar    1  UNL1        0.0144
     18 C          63.3934   96.1095   -3.7133 C.ar    1  UNL1        0.0013
     19 C          63.7247   96.8498   -2.4515 C.ar    1  UNL1       -0.0002
     20 C          63.3154   96.2874   -1.1225 C.ar    1  UNL1       -0.0026
     21 C          62.5748   94.9847   -1.0554 C.ar    1  UNL1       -0.0008
     22 H          61.1684   92.3110   -2.5647 H       1  UNL1        0.1549
     23 C          60.1692   89.7007    7.9693 C.2     1  UNL1        0.0016
     24 C          59.6554   89.3518    6.6040 C.2     1  UNL1        0.0209
     25 C          61.5822   86.4489   10.7405 C.ar    1  UNL1       -0.0061
     26 C          62.0359   87.8630   10.9507 C.ar    1  UNL1       -0.0029
     27 C          61.5649   88.9470   10.0270 C.ar    1  UNL1       -0.0003
     28 C          60.6402   88.6168    8.8930 C.ar    1  UNL1        0.0000
     29 C          60.1865   87.2026    8.6828 C.ar    1  UNL1       -0.0003
     30 C          60.6575   86.1186    9.6065 C.ar    1  UNL1       -0.0029
     31 C          62.0532   85.3649   11.6642 C.3     1  UNL1        0.0992
     32 C          63.5309   84.3006    9.8114 C.3     1  UNL1        0.0899
     33 N          62.8014   84.1857   11.1169 N.3     1  UNL1       -0.2665
     34 C          62.8200   82.8915   11.8751 C.3     1  UNL1        0.0899
@<TRIPOS>BOND
     1    32    33    1
     2    33    34    1
     3    33    31    1
     4    31    25    1
     5    25    26   ar
     6    26    27   ar
     7    27    28   ar
     8    28    23    1
     9    23    24    2
    10    24     1    1
    11     1     2    2
    12     2     3    1
    13     3     4    2
    14     4     5    1
    15     5     6    1
    16    10     6    1
    17    10    11    1
    18    12    11    1
    19    12    13    1
    20    13    14    2
    21    13    15   am
    22    15    16    1
    23    16    17   ar
    24    17    18   ar
    25    18    19   ar
    26    19    20   ar
    27    20    21   ar
    28     6     7    2
    29     7     8    1
    30     8     9    2
    31    28    29   ar
    32    29    30   ar
    33    30    25   ar
    34     9     1    1
    35     9     4    1
    36    12    10    1
    37    21    16   ar
    38    21    12    1
    39    15    22    1
@<TRIPOS>MOLECULE
*****
 34 39 0 0 0
SMALL
GASTEIGER

@<TRIPOS>ATOM
      1 C          63.6030   88.5715   16.0635 C.2     1  UNL1        0.1040
      2 N          63.1523   88.3021   17.4686 N.2     1  UNL1       -0.1483
      3 N          62.8034   86.8469   17.5726 N.2     1  UNL1       -0.1520
      4 C          63.0386   86.2170   16.2317 C.2     1  UNL1        0.0860
      5 C          62.8666   84.8105   15.7395 C.3     1  UNL1        0.0697
      6 C          63.1888   84.4699   14.3147 C.2     1  UNL1       -0.0378
      7 C          63.6830   85.5357   13.3821 C.2     1  UNL1       -0.0080
      8 C          63.8550   86.9422   13.8742 C.2     1  UNL1        0.0022
      9 C          63.5328   87.2828   15.2991 C.2     1  UNL1        0.0350
     10 C          63.0169   83.0634   13.8224 C.3     1  UNL1        0.0315
     11 C          62.7237   81.6181   14.0962 C.3     1  UNL1        0.0179
     12 C          63.0122   82.0727   12.6962 C.3     1  UNL1        0.0927
     13 C          63.3456   83.0601   11.6174 C.2     1  UNL1        0.2293
     14 O          63.5738   84.5304   11.8078 O.2     1  UNL1       -0.2744
     15 N          63.4108   82.3191   10.3148 N.am    1  UNL1       -0.2839
     16 C          63.1177   80.8737   10.5886 C.ar    1  UNL1        0.0467
     17 C          63.0433   79.6767    9.6878 C.ar    1  UNL1        0.0144
     18 C          62.7224   78.3272   10.2588 C.ar    1  UNL1        0.0013
     19 C          62.4760   78.1749   11.7306 C.ar    1  UNL1       -0.0002
     20 C          62.5504   79.3720   12.6313 C.ar    1  UNL1       -0.0026
     21 C          62.8713   80.7214   12.0603 C.ar    1  UNL1       -0.0008
     22 H          63.6109   82.7124    9.4348 H       1  UNL1        0.1549
     23 C          64.7460   89.9670   14.1937 C.2     1  UNL1        0.0016
     24 C          64.0462   89.8969   15.5186 C.2     1  UNL1        0.0209
     25 C          66.0755   93.9432   12.5590 C.ar    1  UNL1       -0.0061
     26 C          65.2590   93.0171   11.7070 C.ar    1  UNL1       -0.0029
     27 C          64.8158   91.6917   12.2519 C.ar    1  UNL1       -0.0003
     28 C          65.1892   91.2924   13.6488 C.ar    1  UNL1        0.0000
     29 C          66.0056   92.2184   14.5007 C.ar    1  UNL1       -0.0003
     30 C          66.4488   93.5439   13.9558 C.ar    1  UNL1       -0.0029
     31 C          66.5186   95.2686   12.0140 C.3     1  UNL1        0.0992
     32 C          67.4322   95.0090    9.5958 C.3     1  UNL1        0.0899
     33 N          66.4054   95.5514   10.5453 N.3     1  UNL1       -0.2665
     34 C          65.2655   96.3766   10.0260 C.3     1  UNL1        0.0899
@<TRIPOS>BOND
     1    32    33    1
     2    33    34    1
     3    33    31    1
     4    31    25    1
     5    25    26   ar
     6    26    27   ar
     7    27    28   ar
     8    28    23    1
     9    23    24    2
    10    24     1    1
    11     1     2    2
    12     2     3    1
    13     3     4    2
    14     4     5    1
    15     5     6    1
    16    10     6    1
    17    10    11    1
    18    12    11    1
    19    12    13    1
    20    13    14    2
    21    13    15   am
    22    15    16    1
    23    16    17   ar
    24    17    18   ar
    25    18    19   ar
    26    19    20   ar
    27    20    21   ar
    28     6     7    2
    29     7     8    1
    30     8     9    2
    31    28    29   ar
    32    29    30   ar
    33    30    25   ar
    34     9     1    1
    35     9     4    1
    36    12    10    1
    37    21    16   ar
    38    21    12    1
    39    15    22    1
@<TRIPOS>MOLECULE
*****
 34 39 0 0 0
SMALL
GASTEIGER

@<TRIPOS>ATOM
      1 C          59.1569   89.8673    6.5209 C.2     1  UNL1        0.1040
      2 N          57.6573   89.8965    6.4964 N.2     1  UNL1       -0.1483
      3 N          57.2295   90.8052    5.3823 N.2     1  UNL1       -0.1520
      4 C          58.4647   91.3377    4.7183 C.2     1  UNL1        0.0860
      5 C          58.6586   92.2755    3.5638 C.3     1  UNL1        0.0697
      6 C          60.0437   92.6336    3.1130 C.2     1  UNL1       -0.0378
      7 C          61.2348   92.0540    3.8167 C.2     1  UNL1       -0.0080
      8 C          61.0409   91.1162    4.9712 C.2     1  UNL1        0.0022
      9 C          59.6558   90.7580    5.4220 C.2     1  UNL1        0.0350
     10 C          60.2376   93.5715    1.9584 C.3     1  UNL1        0.0315
     11 C          59.8070   94.7782    1.1786 C.3     1  UNL1        0.0179
     12 C          61.0042   93.9890    0.7386 C.3     1  UNL1        0.0927
     13 C          62.0191   92.8865    0.8062 C.2     1  UNL1        0.2293
     14 O          62.0783   91.8050    1.8440 O.2     1  UNL1       -0.2744
     15 N          62.9643   93.0553   -0.3462 N.am    1  UNL1       -0.2839
     16 C          62.5336   94.2621   -1.1260 C.ar    1  UNL1        0.0467
     17 C          63.0881   94.9101   -2.3600 C.ar    1  UNL1        0.0144
     18 C          62.4311   96.1351   -2.9235 C.ar    1  UNL1        0.0013
     19 C          61.2197   96.7121   -2.2531 C.ar    1  UNL1       -0.0002
     20 C          60.6652   96.0642   -1.0191 C.ar    1  UNL1       -0.0026
     21 C          61.3222   94.8391   -0.4556 C.ar    1  UNL1       -0.0008
     22 H          63.7325   92.4757   -0.5542 H       1  UNL1        0.1549
     23 C          59.8209   87.6022    7.6065 C.2     1  UNL1        0.0016
     24 C          60.0080   89.0848    7.4767 C.2     1  UNL1        0.0209
     25 C          62.3743   85.2549   10.4736 C.ar    1  UNL1       -0.0061
     26 C          61.2453   86.0963   10.9908 C.ar    1  UNL1       -0.0029
     27 C          60.3942   86.8788   10.0351 C.ar    1  UNL1       -0.0003
     28 C          60.6721   86.8198    8.5622 C.ar    1  UNL1        0.0000
     29 C          61.8010   85.9784    8.0450 C.ar    1  UNL1       -0.0003
     30 C          62.6522   85.1959    9.0008 C.ar    1  UNL1       -0.0029
     31 C          63.2254   84.4725   11.4294 C.3     1  UNL1        0.0992
     32 C          64.4519   82.3865   10.4837 C.3     1  UNL1        0.0899
     33 N          63.3359   82.9832   11.2889 N.3     1  UNL1       -0.2665
     34 C          62.3303   82.0905   11.9537 C.3     1  UNL1        0.0899
@<TRIPOS>BOND
     1    32    33    1
     2    33    34    1
     3    33    31    1
     4    31    25    1
     5    25    26   ar
     6    26    27   ar
     7    27    28   ar
     8    28    23    1
     9    23    24    2
    10    24     1    1
    11     1     2    2
    12     2     3    1
    13     3     4    2
    14     4     5    1
    15     5     6    1
    16    10     6    1
    17    10    11    1
    18    12    11    1
    19    12    13    1
    20    13    14    2
    21    13    15   am
    22    15    16    1
    23    16    17   ar
    24    17    18   ar
    25    18    19   ar
    26    19    20   ar
    27    20    21   ar
    28     6     7    2
    29     7     8    1
    30     8     9    2
    31    28    29   ar
    32    29    30   ar
    33    30    25   ar
    34     9     1    1
    35     9     4    1
    36    12    10    1
    37    21    16   ar
    38    21    12    1
    39    15    22    1
