@<TRIPOS>MOLECULE
*****
 35 38 0 0 0
SMALL
GASTEIGER

@<TRIPOS>ATOM
      1 N          65.0949   89.5804   14.6967 N.am    1  UNL1       -0.2805
      2 C          64.4403   90.5700   13.7790 C.2     1  UNL1        0.2538
      3 O          62.9949   90.4098   13.4115 O.2     1  UNL1       -0.2697
      4 H          66.0436   89.6855   14.9379 H       1  UNL1        0.1552
      5 C          65.2311   91.7197   13.2288 C.ar    1  UNL1        0.1056
      6 C          66.2927   92.4888   13.9579 C.ar    1  UNL1        0.1279
      7 N          66.8168   93.5466   13.0326 N.ar    1  UNL1       -0.1621
      8 N          66.0792   93.4313   11.7315 N.ar    1  UNL1       -0.2141
      9 C          65.0991   92.3022   11.8528 C.ar    1  UNL1        0.1328
     10 N          64.1533   91.8373   10.7855 N.pl3   1  UNL1       -0.3424
     11 H          64.1408   92.2859    9.9093 H       1  UNL1        0.1437
     12 H          63.5449   91.0834   10.9612 H       1  UNL1        0.1437
     13 C          66.2854   94.2937   10.5216 C.ar    1  UNL1        0.1115
     14 C          65.6305   95.6407   10.4403 C.ar    1  UNL1        0.0215
     15 C          65.8367   96.5031    9.2305 C.ar    1  UNL1        0.0017
     16 C          66.6978   96.0184    8.1019 C.ar    1  UNL1        0.0024
     17 C          67.3527   94.6714    8.1832 C.ar    1  UNL1        0.0312
     18 C          67.1465   93.8091    9.3931 C.ar    1  UNL1        0.1577
     19 F          67.8014   92.4620    9.4745 F       1  UNL1       -0.2026
     20 C          63.3012   89.9910   17.0662 C.3     1  UNL1        0.0323
     21 C          63.4073   88.6359   16.4316 C.ar    1  UNL1       -0.0084
     22 C          62.6165   87.4862   16.9818 C.ar    1  UNL1       -0.0029
     23 C          62.7226   86.1312   16.3473 C.ar    1  UNL1        0.0043
     24 C          63.6194   85.9259   15.1626 C.ar    1  UNL1        0.0549
     25 C          64.4101   87.0756   14.6125 C.ar    1  UNL1        0.0189
     26 C          64.3041   88.4306   15.2470 C.ar    1  UNL1        0.0467
     27 C          63.7254   84.5708   14.5281 C.2     1  UNL1        0.2507
     28 O          65.0624   84.0499   14.0910 O.2     1  UNL1       -0.2698
     29 N          62.4945   83.7367   14.3307 N.am    1  UNL1       -0.2632
     30 H          61.6170   84.0786   14.6176 H       1  UNL1        0.1567
     31 C          62.6005   82.3816   13.6962 C.ar    1  UNL1        0.1767
     32 C          62.8032   82.1053   12.2359 C.ar    1  UNL1        0.0812
     33 C          62.8504   80.6179   12.0478 C.ar    1  UNL1        0.2152
     34 O          62.6770   79.9749   13.3918 O.2     1  UNL1       -0.3489
     35 N          62.5225   81.0649   14.4107 N.ar    1  UNL1       -0.0616
@<TRIPOS>BOND
     1    20    21    1
     2    21    22   ar
     3    22    23   ar
     4    23    24   ar
     5    24    27    1
     6    27    28    2
     7    27    29   am
     8    29    31    1
     9    31    32   ar
    10    32    33   ar
    11    33    34   ar
    12    34    35   ar
    13    24    25   ar
    14    25    26   ar
    15    26     1    1
    16     1     2   am
    17     2     3    2
    18     2     5    1
    19     5     6   ar
    20     6     7   ar
    21     7     8   ar
    22     8    13    1
    23    13    14   ar
    24    14    15   ar
    25    15    16   ar
    26    16    17   ar
    27    17    18   ar
    28    18    19    1
    29     8     9   ar
    30     9    10    1
    31    26    21   ar
    32     9     5   ar
    33    35    31   ar
    34    18    13   ar
    35    29    30    1
    36     1     4    1
    37    10    11    1
    38    10    12    1
@<TRIPOS>MOLECULE
*****
 35 38 0 0 0
SMALL
GASTEIGER

@<TRIPOS>ATOM
      1 N          63.8520   88.2250   14.0260 N.am    1  UNL1       -0.2805
      2 C          63.2518   88.0684   12.6602 C.2     1  UNL1        0.2538
      3 O          63.0236   89.2748   11.7985 O.2     1  UNL1       -0.2697
      4 H          64.0017   87.4332   14.5915 H       1  UNL1        0.1552
      5 C          62.8798   86.7055   12.1562 C.ar    1  UNL1        0.1056
      6 C          62.2804   86.3939   10.8169 C.ar    1  UNL1        0.1279
      7 N          62.0720   84.9107   10.7360 N.ar    1  UNL1       -0.1621
      8 N          62.5426   84.3055   12.0254 N.ar    1  UNL1       -0.2141
      9 C          63.0418   85.4148   12.9031 C.ar    1  UNL1        0.1328
     10 N          63.6043   85.2604   14.2851 N.pl3   1  UNL1       -0.3424
     11 H          63.6705   84.3666   14.6926 H       1  UNL1        0.1437
     12 H          63.9074   86.0528   14.7846 H       1  UNL1        0.1437
     13 C          62.5182   82.8471   12.3755 C.ar    1  UNL1        0.1115
     14 C          61.9293   82.3988   13.6801 C.ar    1  UNL1        0.0215
     15 C          61.9049   80.9404   14.0302 C.ar    1  UNL1        0.0017
     16 C          62.4695   79.9304   13.0757 C.ar    1  UNL1        0.0024
     17 C          63.0584   80.3788   11.7710 C.ar    1  UNL1        0.0312
     18 C          63.0828   81.8371   11.4209 C.ar    1  UNL1        0.1577
     19 F          63.6717   82.2856   10.1162 F       1  UNL1       -0.2026
     20 C          63.0044   89.0926   16.7698 C.3     1  UNL1        0.0323
     21 C          63.8002   90.0217   15.9019 C.ar    1  UNL1       -0.0084
     22 C          64.1723   91.3847   16.4058 C.ar    1  UNL1       -0.0029
     23 C          64.9681   92.3138   15.5379 C.ar    1  UNL1        0.0043
     24 C          65.3919   91.8800   14.1660 C.ar    1  UNL1        0.0549
     25 C          65.0198   90.5171   13.6620 C.ar    1  UNL1        0.0189
     26 C          64.2240   89.5880   14.5300 C.ar    1  UNL1        0.0467
     27 C          66.1877   92.8092   13.2980 C.2     1  UNL1        0.2507
     28 O          67.6057   93.1411   13.6573 O.2     1  UNL1       -0.2698
     29 N          65.5656   93.4064   12.0707 N.am    1  UNL1       -0.2632
     30 H          64.6349   93.1885   11.8349 H       1  UNL1        0.1567
     31 C          66.3614   94.3355   11.2028 C.ar    1  UNL1        0.1767
     32 C          66.1253   95.8077   11.0385 C.ar    1  UNL1        0.0812
     33 C          67.1511   96.3376   10.0809 C.ar    1  UNL1        0.2152
     34 O          68.0211   95.1930    9.6533 O.2     1  UNL1       -0.3489
     35 N          67.5331   93.9555   10.3466 N.ar    1  UNL1       -0.0616
@<TRIPOS>BOND
     1    20    21    1
     2    21    22   ar
     3    22    23   ar
     4    23    24   ar
     5    24    27    1
     6    27    28    2
     7    27    29   am
     8    29    31    1
     9    31    32   ar
    10    32    33   ar
    11    33    34   ar
    12    34    35   ar
    13    24    25   ar
    14    25    26   ar
    15    26     1    1
    16     1     2   am
    17     2     3    2
    18     2     5    1
    19     5     6   ar
    20     6     7   ar
    21     7     8   ar
    22     8    13    1
    23    13    14   ar
    24    14    15   ar
    25    15    16   ar
    26    16    17   ar
    27    17    18   ar
    28    18    19    1
    29     8     9   ar
    30     9    10    1
    31    26    21   ar
    32     9     5   ar
    33    35    31   ar
    34    18    13   ar
    35    29    30    1
    36     1     4    1
    37    10    11    1
    38    10    12    1
@<TRIPOS>MOLECULE
*****
 35 38 0 0 0
SMALL
GASTEIGER

@<TRIPOS>ATOM
      1 N          62.6131   86.8325   11.8460 N.am    1  UNL1       -0.2805
      2 C          63.2065   86.0859   13.0037 C.2     1  UNL1        0.2538
      3 O          64.0047   86.8202   14.0399 O.2     1  UNL1       -0.2697
      4 H          62.0892   86.3505   11.1660 H       1  UNL1        0.1552
      5 C          63.0018   84.6048   13.1253 C.ar    1  UNL1        0.1056
      6 C          62.6803   83.8599   14.3869 C.ar    1  UNL1        0.1279
      7 N          62.5624   82.4034   14.0480 N.ar    1  UNL1       -0.1621
      8 N          62.8112   82.2483   12.5768 N.ar    1  UNL1       -0.2141
      9 C          63.0828   83.6089   12.0066 C.ar    1  UNL1        0.1328
     10 N          63.3826   83.9190   10.5700 N.pl3   1  UNL1       -0.3424
     11 H          63.4140   83.1929    9.9059 H       1  UNL1        0.1437
     12 H          63.5479   84.8486   10.2912 H       1  UNL1        0.1437
     13 C          62.7918   80.9589   11.8105 C.ar    1  UNL1        0.1115
     14 C          63.0168   80.9645   10.3275 C.ar    1  UNL1        0.0215
     15 C          62.9974   79.6752    9.5612 C.ar    1  UNL1        0.0017
     16 C          62.7530   78.3803   10.2779 C.ar    1  UNL1        0.0024
     17 C          62.5280   78.3748   11.7609 C.ar    1  UNL1        0.0312
     18 C          62.5474   79.6641   12.5272 C.ar    1  UNL1        0.1577
     19 F          62.3224   79.6587   14.0103 F       1  UNL1       -0.2026
     20 C          61.3934   88.3320    9.5517 C.3     1  UNL1        0.0323
     21 C          62.2079   89.0632   10.5773 C.ar    1  UNL1       -0.0084
     22 C          62.4127   90.5442   10.4557 C.ar    1  UNL1       -0.0029
     23 C          63.2272   91.2754   11.4813 C.ar    1  UNL1        0.0043
     24 C          63.8370   90.5257   12.6284 C.ar    1  UNL1        0.0549
     25 C          63.6323   89.0447   12.7500 C.ar    1  UNL1        0.0189
     26 C          62.8178   88.3135   11.7244 C.ar    1  UNL1        0.0467
     27 C          64.6516   91.2569   13.6540 C.2     1  UNL1        0.2507
     28 O          64.0288   91.6614   14.9573 O.2     1  UNL1       -0.2698
     29 N          66.0889   91.5837   13.3764 N.am    1  UNL1       -0.2632
     30 H          66.4977   91.3182   12.5210 H       1  UNL1        0.1567
     31 C          66.9035   92.3149   14.4020 C.ar    1  UNL1        0.1767
     32 C          67.8683   91.6938   15.3681 C.ar    1  UNL1        0.0812
     33 C          68.4574   92.7907   16.2047 C.ar    1  UNL1        0.2152
     34 O          67.8566   94.0897   15.7557 O.2     1  UNL1       -0.3489
     35 N          66.8962   93.7957   14.6415 N.ar    1  UNL1       -0.0616
@<TRIPOS>BOND
     1    20    21    1
     2    21    22   ar
     3    22    23   ar
     4    23    24   ar
     5    24    27    1
     6    27    28    2
     7    27    29   am
     8    29    31    1
     9    31    32   ar
    10    32    33   ar
    11    33    34   ar
    12    34    35   ar
    13    24    25   ar
    14    25    26   ar
    15    26     1    1
    16     1     2   am
    17     2     3    2
    18     2     5    1
    19     5     6   ar
    20     6     7   ar
    21     7     8   ar
    22     8    13    1
    23    13    14   ar
    24    14    15   ar
    25    15    16   ar
    26    16    17   ar
    27    17    18   ar
    28    18    19    1
    29     8     9   ar
    30     9    10    1
    31    26    21   ar
    32     9     5   ar
    33    35    31   ar
    34    18    13   ar
    35    29    30    1
    36     1     4    1
    37    10    11    1
    38    10    12    1
@<TRIPOS>MOLECULE
*****
 35 38 0 0 0
SMALL
GASTEIGER

@<TRIPOS>ATOM
      1 N          63.4039   87.0130   14.3063 N.am    1  UNL1       -0.2805
      2 C          64.4385   85.9817   14.6465 C.2     1  UNL1        0.2538
      3 O          65.7479   86.4021   15.2455 O.2     1  UNL1       -0.2697
      4 H          62.5445   86.7371   13.9132 H       1  UNL1        0.1552
      5 C          64.1638   84.5299   14.3878 C.ar    1  UNL1        0.1056
      6 C          64.1395   83.4399   15.4180 C.ar    1  UNL1        0.1279
      7 N          63.8259   82.1496   14.7204 N.ar    1  UNL1       -0.1621
      8 N          63.6562   82.4421   13.2589 N.ar    1  UNL1       -0.2141
      9 C          63.8651   83.9133   13.0534 C.ar    1  UNL1        0.1328
     10 N          63.7887   84.6401   11.7435 N.pl3   1  UNL1       -0.3424
     11 H          63.5853   84.1452   10.9171 H       1  UNL1        0.1437
     12 H          63.9419   85.6121   11.7102 H       1  UNL1        0.1437
     13 C          63.3343   81.4396   12.1906 C.ar    1  UNL1        0.1115
     14 C          63.5963   81.7678   10.7506 C.ar    1  UNL1        0.0215
     15 C          63.2744   80.7653    9.6824 C.ar    1  UNL1        0.0017
     16 C          62.6904   79.4345   10.0541 C.ar    1  UNL1        0.0024
     17 C          62.4284   79.1063   11.4941 C.ar    1  UNL1        0.0312
     18 C          62.7503   80.1089   12.5624 C.ar    1  UNL1        0.1577
     19 F          62.4883   79.7808   14.0024 F       1  UNL1       -0.2026
     20 C          62.9950   88.1511   17.0518 C.3     1  UNL1        0.0323
     21 C          63.4741   89.0338   15.9377 C.ar    1  UNL1       -0.0084
     22 C          63.7489   90.4856   16.1963 C.ar    1  UNL1       -0.0029
     23 C          64.2280   91.3683   15.0823 C.ar    1  UNL1        0.0043
     24 C          64.4325   90.7993   13.7095 C.ar    1  UNL1        0.0549
     25 C          64.1578   89.3476   13.4509 C.ar    1  UNL1        0.0189
     26 C          63.6786   88.4648   14.5650 C.ar    1  UNL1        0.0467
     27 C          64.9117   91.6821   12.5955 C.2     1  UNL1        0.2507
     28 O          64.1916   91.6868   11.2797 O.2     1  UNL1       -0.2698
     29 N          66.1110   92.5601   12.7972 N.am    1  UNL1       -0.2632
     30 H          66.5836   92.5570   13.6608 H       1  UNL1        0.1567
     31 C          66.5901   93.4428   11.6831 C.ar    1  UNL1        0.1767
     32 C          66.0809   94.8177   11.3664 C.ar    1  UNL1        0.0812
     33 C          66.8387   95.3303   10.1777 C.ar    1  UNL1        0.2152
     34 O          67.8163   94.2722    9.7597 O.2     1  UNL1       -0.3489
     35 N          67.6627   93.1056   10.6901 N.ar    1  UNL1       -0.0616
@<TRIPOS>BOND
     1    20    21    1
     2    21    22   ar
     3    22    23   ar
     4    23    24   ar
     5    24    27    1
     6    27    28    2
     7    27    29   am
     8    29    31    1
     9    31    32   ar
    10    32    33   ar
    11    33    34   ar
    12    34    35   ar
    13    24    25   ar
    14    25    26   ar
    15    26     1    1
    16     1     2   am
    17     2     3    2
    18     2     5    1
    19     5     6   ar
    20     6     7   ar
    21     7     8   ar
    22     8    13    1
    23    13    14   ar
    24    14    15   ar
    25    15    16   ar
    26    16    17   ar
    27    17    18   ar
    28    18    19    1
    29     8     9   ar
    30     9    10    1
    31    26    21   ar
    32     9     5   ar
    33    35    31   ar
    34    18    13   ar
    35    29    30    1
    36     1     4    1
    37    10    11    1
    38    10    12    1
@<TRIPOS>MOLECULE
*****
 35 38 0 0 0
SMALL
GASTEIGER

@<TRIPOS>ATOM
      1 N          63.1431   87.9148   12.6117 N.am    1  UNL1       -0.2805
      2 C          63.8396   87.3821   13.8287 C.2     1  UNL1        0.2538
      3 O          64.8221   88.2420   14.5672 O.2     1  UNL1       -0.2697
      4 H          62.4983   87.3505   12.1270 H       1  UNL1        0.1552
      5 C          63.5537   85.9895   14.3072 C.ar    1  UNL1        0.1056
      6 C          63.5862   85.5229   15.7324 C.ar    1  UNL1        0.1279
      7 N          63.2377   84.0640   15.7505 N.ar    1  UNL1       -0.1621
      8 N          62.9898   83.6290   14.3365 N.ar    1  UNL1       -0.2141
      9 C          63.1851   84.8191   13.4444 C.ar    1  UNL1        0.1328
     10 N          63.0377   84.8358   11.9518 N.pl3   1  UNL1       -0.3424
     11 H          62.7912   84.0121   11.4723 H       1  UNL1        0.1437
     12 H          63.1874   85.6705   11.4517 H       1  UNL1        0.1437
     13 C          62.6128   82.2468   13.8925 C.ar    1  UNL1        0.1115
     14 C          61.3774   81.5944   14.4388 C.ar    1  UNL1        0.0215
     15 C          61.0004   80.2121   13.9948 C.ar    1  UNL1        0.0017
     16 C          61.8587   79.4822   13.0045 C.ar    1  UNL1        0.0024
     17 C          63.0940   80.1346   12.4582 C.ar    1  UNL1        0.0312
     18 C          63.4710   81.5169   12.9022 C.ar    1  UNL1        0.1577
     19 F          64.7063   82.1694   12.3560 F       1  UNL1       -0.2026
     20 C          61.6787   89.0148   10.2356 C.3     1  UNL1        0.0323
     21 C          62.6968   89.8574   10.9452 C.ar    1  UNL1       -0.0084
     22 C          62.9828   91.2499   10.4667 C.ar    1  UNL1       -0.0029
     23 C          64.0009   92.0926   11.1762 C.ar    1  UNL1        0.0043
     24 C          64.7330   91.5426   12.3643 C.ar    1  UNL1        0.0549
     25 C          64.4471   90.1501   12.8427 C.ar    1  UNL1        0.0189
     26 C          63.4290   89.3075   12.1332 C.ar    1  UNL1        0.0467
     27 C          65.7511   92.3852   13.0738 C.2     1  UNL1        0.2507
     28 O          65.7536   93.8737   12.8882 O.2     1  UNL1       -0.2698
     29 N          66.7668   91.7394   13.9689 N.am    1  UNL1       -0.2632
     30 H          66.7652   90.7625   14.0908 H       1  UNL1        0.1567
     31 C          67.7849   92.5820   14.6785 C.ar    1  UNL1        0.1767
     32 C          67.5292   93.4583   15.8687 C.ar    1  UNL1        0.0812
     33 C          68.8237   94.1142   16.2483 C.ar    1  UNL1        0.2152
     34 O          69.8796   93.6432   15.2925 O.2     1  UNL1       -0.3489
     35 N          69.2376   92.6963   14.3223 N.ar    1  UNL1       -0.0616
@<TRIPOS>BOND
     1    20    21    1
     2    21    22   ar
     3    22    23   ar
     4    23    24   ar
     5    24    27    1
     6    27    28    2
     7    27    29   am
     8    29    31    1
     9    31    32   ar
    10    32    33   ar
    11    33    34   ar
    12    34    35   ar
    13    24    25   ar
    14    25    26   ar
    15    26     1    1
    16     1     2   am
    17     2     3    2
    18     2     5    1
    19     5     6   ar
    20     6     7   ar
    21     7     8   ar
    22     8    13    1
    23    13    14   ar
    24    14    15   ar
    25    15    16   ar
    26    16    17   ar
    27    17    18   ar
    28    18    19    1
    29     8     9   ar
    30     9    10    1
    31    26    21   ar
    32     9     5   ar
    33    35    31   ar
    34    18    13   ar
    35    29    30    1
    36     1     4    1
    37    10    11    1
    38    10    12    1
@<TRIPOS>MOLECULE
*****
 35 38 0 0 0
SMALL
GASTEIGER

@<TRIPOS>ATOM
      1 N          63.3628   89.2862   11.1102 N.am    1  UNL1       -0.2805
      2 C          63.5578   89.9668   12.4327 C.2     1  UNL1        0.2538
      3 O          62.8962   89.4194   13.6626 O.2     1  UNL1       -0.2697
      4 H          63.7971   89.6455   10.3030 H       1  UNL1        0.1552
      5 C          64.4144   91.1947   12.5252 C.ar    1  UNL1        0.1056
      6 C          65.0379   91.7426   13.7746 C.ar    1  UNL1        0.1279
      7 N          65.8067   92.9768   13.4061 N.ar    1  UNL1       -0.1621
      8 N          65.6583   93.1917   11.9290 N.ar    1  UNL1       -0.2141
      9 C          64.7978   92.0902   11.3845 C.ar    1  UNL1        0.1328
     10 N          64.3920   91.9150    9.9511 N.pl3   1  UNL1       -0.3424
     11 H          64.6958   92.5591    9.2713 H       1  UNL1        0.1437
     12 H          63.8218   91.1560    9.6902 H       1  UNL1        0.1437
     13 C          66.2641   94.3113   11.1356 C.ar    1  UNL1        0.1115
     14 C          65.9208   95.7342   11.4636 C.ar    1  UNL1        0.0215
     15 C          66.5265   96.8538   10.6703 C.ar    1  UNL1        0.0017
     16 C          67.4756   96.5506    9.5489 C.ar    1  UNL1        0.0024
     17 C          67.8188   95.1277    9.2209 C.ar    1  UNL1        0.0312
     18 C          67.2131   94.0081   10.0142 C.ar    1  UNL1        0.1577
     19 F          67.5563   92.5851    9.6863 F       1  UNL1       -0.2026
     20 C          61.0170   89.2310    9.2410 C.3     1  UNL1        0.0323
     21 C          61.3334   88.0307   10.0831 C.ar    1  UNL1       -0.0084
     22 C          60.4769   86.8028    9.9906 C.ar    1  UNL1       -0.0029
     23 C          60.7932   85.6025   10.8327 C.ar    1  UNL1        0.0043
     24 C          61.9661   85.6301   11.7673 C.ar    1  UNL1        0.0549
     25 C          62.8226   86.8580   11.8598 C.ar    1  UNL1        0.0189
     26 C          62.5062   88.0583   11.0177 C.ar    1  UNL1        0.0467
     27 C          62.2824   84.4298   12.6094 C.2     1  UNL1        0.2507
     28 O          62.3999   84.5681   14.0984 O.2     1  UNL1       -0.2698
     29 N          62.4812   83.0911   11.9626 N.am    1  UNL1       -0.2632
     30 H          62.4041   83.0003   10.9853 H       1  UNL1        0.1567
     31 C          62.7976   81.8908   12.8047 C.ar    1  UNL1        0.1767
     32 C          61.9099   80.6992   13.0103 C.ar    1  UNL1        0.0812
     33 C          62.6209   79.7433   13.9217 C.ar    1  UNL1        0.2152
     34 O          63.9479   80.3440   14.2795 O.2     1  UNL1       -0.3489
     35 N          64.0572   81.6713   13.5891 N.ar    1  UNL1       -0.0616
@<TRIPOS>BOND
     1    20    21    1
     2    21    22   ar
     3    22    23   ar
     4    23    24   ar
     5    24    27    1
     6    27    28    2
     7    27    29   am
     8    29    31    1
     9    31    32   ar
    10    32    33   ar
    11    33    34   ar
    12    34    35   ar
    13    24    25   ar
    14    25    26   ar
    15    26     1    1
    16     1     2   am
    17     2     3    2
    18     2     5    1
    19     5     6   ar
    20     6     7   ar
    21     7     8   ar
    22     8    13    1
    23    13    14   ar
    24    14    15   ar
    25    15    16   ar
    26    16    17   ar
    27    17    18   ar
    28    18    19    1
    29     8     9   ar
    30     9    10    1
    31    26    21   ar
    32     9     5   ar
    33    35    31   ar
    34    18    13   ar
    35    29    30    1
    36     1     4    1
    37    10    11    1
    38    10    12    1
@<TRIPOS>MOLECULE
*****
 35 38 0 0 0
SMALL
GASTEIGER

@<TRIPOS>ATOM
      1 N          62.2055   86.6475   10.4279 N.am    1  UNL1       -0.2805
      2 C          60.9633   87.4826   10.3313 C.2     1  UNL1        0.2538
      3 O          60.3636   88.0809   11.5692 O.2     1  UNL1       -0.2697
      4 H          62.5992   86.2549    9.6154 H       1  UNL1        0.1552
      5 C          60.3208   87.7196    8.9966 C.ar    1  UNL1        0.1056
      6 C          59.9558   86.6652    7.9942 C.ar    1  UNL1        0.1279
      7 N          59.3399   87.3466    6.8082 N.ar    1  UNL1       -0.1621
      8 N          59.3243   88.8221    7.0778 N.ar    1  UNL1       -0.2141
      9 C          59.9306   89.0527    8.4304 C.ar    1  UNL1        0.1328
     10 N          60.1142   90.3827    9.0991 N.pl3   1  UNL1       -0.3424
     11 H          59.8244   91.2065    8.6445 H       1  UNL1        0.1437
     12 H          60.5246   90.4319    9.9927 H       1  UNL1        0.1437
     13 C          58.7953   89.8811    6.1565 C.ar    1  UNL1        0.1115
     14 C          57.3153   90.0708    6.0032 C.ar    1  UNL1        0.0215
     15 C          56.7863   91.1298    5.0820 C.ar    1  UNL1        0.0017
     16 C          57.7374   91.9991    4.3141 C.ar    1  UNL1        0.0024
     17 C          59.2174   91.8095    4.4674 C.ar    1  UNL1        0.0312
     18 C          59.7464   90.7505    5.3886 C.ar    1  UNL1        0.1577
     19 F          61.2264   90.5608    5.5420 F       1  UNL1       -0.2026
     20 C          62.9076   83.8582   11.2807 C.3     1  UNL1        0.0323
     21 C          63.1991   85.0159   12.1888 C.ar    1  UNL1       -0.0084
     22 C          63.8416   84.7790   13.5234 C.ar    1  UNL1       -0.0029
     23 C          64.1330   85.9367   14.4316 C.ar    1  UNL1        0.0043
     24 C          63.7820   87.3313   14.0052 C.ar    1  UNL1        0.0549
     25 C          63.1395   87.5682   12.6707 C.ar    1  UNL1        0.0189
     26 C          62.8481   86.4105   11.7625 C.ar    1  UNL1        0.0467
     27 C          64.0735   88.4890   14.9134 C.2     1  UNL1        0.2507
     28 O          63.8660   88.3525   16.3927 O.2     1  UNL1       -0.2698
     29 N          64.5724   89.7831   14.3423 N.am    1  UNL1       -0.2632
     30 H          64.7086   89.8727   13.3714 H       1  UNL1        0.1567
     31 C          64.8639   90.9408   15.2505 C.ar    1  UNL1        0.1767
     32 C          66.1337   91.7387   15.2822 C.ar    1  UNL1        0.0812
     33 C          65.9913   92.7949   16.3377 C.ar    1  UNL1        0.2152
     34 O          64.6335   92.6498   16.9585 O.2     1  UNL1       -0.3489
     35 N          63.9367   91.5039   16.2866 N.ar    1  UNL1       -0.0616
@<TRIPOS>BOND
     1    20    21    1
     2    21    22   ar
     3    22    23   ar
     4    23    24   ar
     5    24    27    1
     6    27    28    2
     7    27    29   am
     8    29    31    1
     9    31    32   ar
    10    32    33   ar
    11    33    34   ar
    12    34    35   ar
    13    24    25   ar
    14    25    26   ar
    15    26     1    1
    16     1     2   am
    17     2     3    2
    18     2     5    1
    19     5     6   ar
    20     6     7   ar
    21     7     8   ar
    22     8    13    1
    23    13    14   ar
    24    14    15   ar
    25    15    16   ar
    26    16    17   ar
    27    17    18   ar
    28    18    19    1
    29     8     9   ar
    30     9    10    1
    31    26    21   ar
    32     9     5   ar
    33    35    31   ar
    34    18    13   ar
    35    29    30    1
    36     1     4    1
    37    10    11    1
    38    10    12    1
