@<TRIPOS>MOLECULE
*****
 35 40 0 0 0
SMALL
GASTEIGER

@<TRIPOS>ATOM
      1 O          58.9503   94.6709   -0.5397 O.2     1  UNL1       -0.2911
      2 C          60.0149   93.9792    0.2592 C.2     1  UNL1        0.1795
      3 C          59.6561   93.2692    1.5308 C.3     1  UNL1        0.1092
      4 C          60.7207   92.5775    2.3298 C.3     1  UNL1        0.1436
      5 C          61.7853   91.8859    3.1287 C.3     1  UNL1        0.0620
      6 C          61.4264   91.1759    4.4003 C.3     1  UNL1        0.0985
      7 N          60.0029   91.1576    4.8731 N.am    1  UNL1       -0.2640
      8 C          59.6441   90.4475    6.1448 C.2     1  UNL1        0.3039
      9 O          58.2207   90.4292    6.6175 O.2     1  UNL1       -0.2526
     10 N          60.7087   89.7559    6.9436 N.am    1  UNL1       -0.2901
     11 C          58.9384   91.8492    4.0742 C.3     1  UNL1        0.0985
     12 C          59.2972   92.5592    2.8025 C.3     1  UNL1        0.0620
     13 O          62.1441   92.5959    1.8570 O.3     1  UNL1       -0.4819
     14 C          62.5030   93.3059    0.5853 C.ar    1  UNL1        0.1409
     15 C          63.9264   93.3242    0.1126 C.ar    1  UNL1        0.0370
     16 C          64.2853   94.0342   -1.1590 C.ar    1  UNL1        0.0031
     17 C          63.2207   94.7259   -1.9580 C.ar    1  UNL1        0.0004
     18 C          61.7972   94.7076   -1.4852 C.ar    1  UNL1        0.0059
     19 C          61.4384   93.9975   -0.2135 C.ar    1  UNL1        0.0687
     20 H          61.6429   89.7679    6.6333 H       1  UNL1        0.1509
     21 C          63.5795   95.4359   -3.2296 C.ar    1  UNL1        0.0031
     22 C          62.5022   95.8455   -4.1896 C.ar    1  UNL1        0.0207
     23 C          62.8610   96.5555   -5.4613 C.ar    1  UNL1        0.0989
     24 N          64.2972   96.8559   -5.7730 N.ar    1  UNL1       -0.2423
     25 C          65.3746   96.4463   -4.8129 C.ar    1  UNL1        0.0989
     26 C          65.0157   95.7363   -3.5413 C.ar    1  UNL1        0.0207
     27 C          60.3498   89.0458    8.2153 C.3     1  UNL1        0.0774
     28 C          59.4709   88.9088    9.4231 C.3     1  UNL1        0.0259
     29 C          60.6072   87.9531    9.2102 C.3     1  UNL1        0.0420
     30 C          61.4119   86.7705    9.6616 C.ar    1  UNL1       -0.0208
     31 C          62.3005   86.0527    8.6893 C.ar    1  UNL1       -0.0042
     32 C          63.1051   84.8700    9.1407 C.ar    1  UNL1       -0.0003
     33 C          63.0213   84.4051   10.5645 C.ar    1  UNL1       -0.0000
     34 C          62.1328   85.1229   11.5367 C.ar    1  UNL1       -0.0003
     35 C          61.3281   86.3056   11.0852 C.ar    1  UNL1       -0.0042
@<TRIPOS>BOND
     1     1     2    2
     2     2     3    1
     3     3     4    1
     4     4     5    1
     5     5     6    1
     6     6     7    1
     7     7     8   am
     8     8     9    2
     9     8    10   am
    10    27    10    1
    11    27    28    1
    12    28    29    1
    13    29    30    1
    14    30    31   ar
    15    31    32   ar
    16    32    33   ar
    17    33    34   ar
    18    34    35   ar
    19     7    11    1
    20    11    12    1
    21     4    13    1
    22    13    14    1
    23    14    15   ar
    24    15    16   ar
    25    16    17   ar
    26    17    21    1
    27    21    22   ar
    28    22    23   ar
    29    23    24   ar
    30    24    25   ar
    31    25    26   ar
    32    17    18   ar
    33    18    19   ar
    34    19     2    1
    35    12     4    1
    36    19    14   ar
    37    29    27    1
    38    35    30   ar
    39    26    21   ar
    40    10    20    1
@<TRIPOS>MOLECULE
*****
 35 40 0 0 0
SMALL
GASTEIGER

@<TRIPOS>ATOM
      1 O          62.6366   95.6729   -3.5938 O.2     1  UNL1       -0.2911
      2 C          62.2932   95.1653   -2.2246 C.2     1  UNL1        0.1795
      3 C          63.1723   95.5033   -1.0572 C.3     1  UNL1        0.1092
      4 C          62.8289   94.9957    0.3120 C.3     1  UNL1        0.1436
      5 C          62.4855   94.4881    1.6811 C.3     1  UNL1        0.0620
      6 C          63.3646   94.8261    2.8485 C.3     1  UNL1        0.0985
      7 N          64.5870   95.6716    2.6469 N.am    1  UNL1       -0.2640
      8 C          65.4661   96.0096    3.8144 C.2     1  UNL1        0.3039
      9 O          66.6886   96.8551    3.6128 O.2     1  UNL1       -0.2526
     10 N          65.1227   95.5020    5.1835 N.am    1  UNL1       -0.2901
     11 C          64.9304   96.1792    1.2778 C.3     1  UNL1        0.0985
     12 C          64.0514   95.8413    0.1104 C.3     1  UNL1        0.0620
     13 O          61.6064   94.1502    0.5136 O.3     1  UNL1       -0.4819
     14 C          60.7273   93.8122   -0.6539 C.ar    1  UNL1        0.1409
     15 C          59.5049   92.9667   -0.4523 C.ar    1  UNL1        0.0370
     16 C          58.6258   92.6287   -1.6197 C.ar    1  UNL1        0.0031
     17 C          58.9692   93.1363   -2.9889 C.ar    1  UNL1        0.0004
     18 C          60.1917   93.9818   -3.1905 C.ar    1  UNL1        0.0059
     19 C          61.0707   94.3198   -2.0230 C.ar    1  UNL1        0.0687
     20 H          64.3204   94.9471    5.3158 H       1  UNL1        0.1509
     21 C          58.0901   92.7983   -4.1563 C.ar    1  UNL1        0.0031
     22 C          58.2990   93.4819   -5.4750 C.ar    1  UNL1        0.0207
     23 C          57.4199   93.1440   -6.6426 C.ar    1  UNL1        0.0989
     24 N          56.3320   92.1224   -6.4913 N.ar    1  UNL1       -0.2423
     25 C          56.1231   91.4388   -5.1725 C.ar    1  UNL1        0.0989
     26 C          57.0022   91.7768   -4.0050 C.ar    1  UNL1        0.0207
     27 C          66.0018   95.8400    6.3510 C.3     1  UNL1        0.0774
     28 C          66.8197   96.8386    7.1152 C.3     1  UNL1        0.0259
     29 C          66.7065   95.4268    7.6091 C.3     1  UNL1        0.0420
     30 C          67.0481   94.3731    8.6205 C.ar    1  UNL1       -0.0208
     31 C          66.2370   94.2478    9.8761 C.ar    1  UNL1       -0.0042
     32 C          66.5785   93.1941   10.8875 C.ar    1  UNL1       -0.0003
     33 C          67.7312   92.2657   10.6434 C.ar    1  UNL1       -0.0000
     34 C          68.5422   92.3910    9.3879 C.ar    1  UNL1       -0.0003
     35 C          68.2007   93.4447    8.3764 C.ar    1  UNL1       -0.0042
@<TRIPOS>BOND
     1     1     2    2
     2     2     3    1
     3     3     4    1
     4     4     5    1
     5     5     6    1
     6     6     7    1
     7     7     8   am
     8     8     9    2
     9     8    10   am
    10    27    10    1
    11    27    28    1
    12    28    29    1
    13    29    30    1
    14    30    31   ar
    15    31    32   ar
    16    32    33   ar
    17    33    34   ar
    18    34    35   ar
    19     7    11    1
    20    11    12    1
    21     4    13    1
    22    13    14    1
    23    14    15   ar
    24    15    16   ar
    25    16    17   ar
    26    17    21    1
    27    21    22   ar
    28    22    23   ar
    29    23    24   ar
    30    24    25   ar
    31    25    26   ar
    32    17    18   ar
    33    18    19   ar
    34    19     2    1
    35    12     4    1
    36    19    14   ar
    37    29    27    1
    38    35    30   ar
    39    26    21   ar
    40    10    20    1
