@<TRIPOS>MOLECULE
*****
 33 37 0 0 0
SMALL
GASTEIGER

@<TRIPOS>ATOM
      1 C          61.9657   87.9001   11.5306 C.ar    1  UNL1        0.1353
      2 C          62.9951   88.9624   11.7795 C.ar    1  UNL1        0.0346
      3 C          62.8349   90.3210   11.1642 C.ar    1  UNL1        0.0058
      4 C          61.6452   90.6173   10.3001 C.ar    1  UNL1        0.0208
      5 C          60.6158   89.5551   10.0512 C.ar    1  UNL1        0.1003
      6 N          60.7760   88.1965   10.6665 N.ar    1  UNL1       -0.2290
      7 N          62.9904   81.2953   13.1357 N.3     1  UNL1       -0.2698
      8 C          63.2135   81.4834   11.6643 C.3     1  UNL1        0.0940
      9 C          63.0531   82.8419   11.0490 C.3     1  UNL1        0.1123
     10 N          62.6697   84.0124   11.9051 N.am    1  UNL1       -0.2611
     11 C          62.5094   85.3711   11.2898 C.2     1  UNL1        0.3088
     12 O          62.7325   85.5592    9.8185 O.2     1  UNL1       -0.2522
     13 N          62.1260   86.5416   12.1459 N.am    1  UNL1       -0.2535
     14 C          62.4466   83.8244   13.3765 C.3     1  UNL1        0.1123
     15 C          62.6069   82.4658   13.9918 C.3     1  UNL1        0.0940
     16 H          61.9796   86.4182   13.1116 H       1  UNL1        0.1578
     17 C          62.0268   78.9455   13.6837 C.3     1  UNL1        0.0188
     18 C          63.1507   79.9368   13.7509 C.3     1  UNL1        0.0722
     19 C          63.8643   91.3832   11.4131 C.ar    1  UNL1        0.0188
     20 C          64.3804   92.3648   10.4031 C.ar    1  UNL1        0.0758
     21 N          65.3934   93.2385   11.0815 N.ar    1  UNL1       -0.3265
     22 C          65.5035   92.7969   12.5108 C.ar    1  UNL1        0.0793
     23 C          66.3422   93.2908   13.6522 C.ar    1  UNL1        0.1160
     24 N          66.2358   92.6380   14.9984 N.ar    1  UNL1       -0.2408
     25 C          65.2908   91.4913   15.2033 C.ar    1  UNL1        0.0990
     26 C          64.4521   90.9974   14.0620 C.ar    1  UNL1        0.0222
     27 C          64.5585   91.6502   12.7158 C.ar    1  UNL1        0.0203
     28 C          66.1616   94.3575   10.4429 C.3     1  UNL1        0.0906
     29 C          66.9690   94.1019    9.2047 C.3     1  UNL1        0.0547
     30 C          67.7371   95.2209    8.5660 C.3     1  UNL1        0.1441
     31 O          67.6980   96.5953    9.1654 O.3     1  UNL1       -0.3536
     32 C          66.8907   96.8508   10.4035 C.3     1  UNL1        0.1441
     33 C          66.1225   95.7319   11.0422 C.3     1  UNL1        0.0547
@<TRIPOS>BOND
     1    17    18    1
     2    18     7    1
     3     7     8    1
     4     8     9    1
     5     9    10    1
     6    10    11   am
     7    11    12    2
     8    11    13   am
     9    13     1    1
    10     1     2   ar
    11     2     3   ar
    12     3    19    1
    13    19    20   ar
    14    20    21   ar
    15    21    28    1
    16    28    29    1
    17    29    30    1
    18    30    31    1
    19    31    32    1
    20    32    33    1
    21    21    22   ar
    22    22    23   ar
    23    23    24   ar
    24    24    25   ar
    25    25    26   ar
    26    26    27   ar
    27     3     4   ar
    28     4     5   ar
    29     5     6   ar
    30    10    14    1
    31    14    15    1
    32    15     7    1
    33     6     1   ar
    34    27    19   ar
    35    33    28    1
    36    27    22   ar
    37    13    16    1
@<TRIPOS>MOLECULE
*****
 33 37 0 0 0
SMALL
GASTEIGER

@<TRIPOS>ATOM
      1 C          63.7250   87.6865   15.2040 C.ar    1  UNL1        0.1353
      2 C          64.5958   88.6767   14.4890 C.ar    1  UNL1        0.0346
      3 C          64.6379   90.1052   14.9451 C.ar    1  UNL1        0.0058
      4 C          63.8093   90.5431   16.1162 C.ar    1  UNL1        0.0208
      5 C          62.9386   89.5529   16.8312 C.ar    1  UNL1        0.1003
      6 N          62.8964   88.1245   16.3751 N.ar    1  UNL1       -0.2290
      7 N          63.1783   81.6486   11.9644 N.3     1  UNL1       -0.2698
      8 C          62.8420   82.7523   11.0059 C.3     1  UNL1        0.0940
      9 C          62.8841   84.1806   11.4620 C.3     1  UNL1        0.1123
     10 N          63.2625   84.5052   12.8768 N.am    1  UNL1       -0.2611
     11 C          63.3046   85.9336   13.3331 C.2     1  UNL1        0.3088
     12 O          62.9683   87.0373   12.3746 O.2     1  UNL1       -0.2522
     13 N          63.6830   86.2582   14.7478 N.am    1  UNL1       -0.2535
     14 C          63.5988   83.4015   13.8353 C.3     1  UNL1        0.1123
     15 C          63.5567   81.9732   13.3791 C.3     1  UNL1        0.0940
     16 H          63.9037   85.5338   15.3769 H       1  UNL1        0.1578
     17 C          62.8996   79.9017   10.0615 C.3     1  UNL1        0.0188
     18 C          63.1362   80.2203   11.5081 C.3     1  UNL1        0.0722
     19 C          65.5086   91.0954   14.2301 C.ar    1  UNL1        0.0188
     20 C          65.2987   91.6093   12.8366 C.ar    1  UNL1        0.0758
     21 N          66.4025   92.5771   12.5284 N.ar    1  UNL1       -0.3265
     22 C          67.2945   92.6614   13.7314 C.ar    1  UNL1        0.0793
     23 C          68.5385   93.4537   14.0050 C.ar    1  UNL1        0.1160
     24 N          69.2299   93.3301   15.3304 N.ar    1  UNL1       -0.2408
     25 C          68.6774   92.4144   16.3821 C.ar    1  UNL1        0.0990
     26 C          67.4335   91.6221   16.1085 C.ar    1  UNL1        0.0222
     27 C          66.7421   91.7456   14.7832 C.ar    1  UNL1        0.0203
     28 C          66.5827   93.3288   11.2429 C.3     1  UNL1        0.0906
     29 C          65.8961   94.6474   11.0425 C.3     1  UNL1        0.0547
     30 C          66.0762   95.3990    9.7570 C.3     1  UNL1        0.1441
     31 O          66.9429   94.8322    8.6718 O.3     1  UNL1       -0.3536
     32 C          67.6294   93.5137    8.8722 C.3     1  UNL1        0.1441
     33 C          67.4493   92.7620   10.1578 C.3     1  UNL1        0.0547
@<TRIPOS>BOND
     1    17    18    1
     2    18     7    1
     3     7     8    1
     4     8     9    1
     5     9    10    1
     6    10    11   am
     7    11    12    2
     8    11    13   am
     9    13     1    1
    10     1     2   ar
    11     2     3   ar
    12     3    19    1
    13    19    20   ar
    14    20    21   ar
    15    21    28    1
    16    28    29    1
    17    29    30    1
    18    30    31    1
    19    31    32    1
    20    32    33    1
    21    21    22   ar
    22    22    23   ar
    23    23    24   ar
    24    24    25   ar
    25    25    26   ar
    26    26    27   ar
    27     3     4   ar
    28     4     5   ar
    29     5     6   ar
    30    10    14    1
    31    14    15    1
    32    15     7    1
    33     6     1   ar
    34    27    19   ar
    35    33    28    1
    36    27    22   ar
    37    13    16    1
