@<TRIPOS>MOLECULE
*****
 34 36 0 0 0
SMALL
GASTEIGER

@<TRIPOS>ATOM
      1 C          60.4759   86.7078    7.9814 C.3     1  UNL1        0.0821
      2 C          59.7584   87.8045    7.2518 C.3     1  UNL1        0.0470
      3 C          59.8424   89.2168    7.7502 C.3     1  UNL1        0.1134
      4 O          59.1249   90.3136    7.0205 O.3     1  UNL1       -0.3844
      5 C          60.6439   89.5324    8.9782 C.3     1  UNL1        0.0508
      6 C          61.3613   88.4357    9.7078 C.3     1  UNL1        0.1256
      7 N          61.2773   87.0234    9.2094 N.3     1  UNL1       -0.1544
      8 H          58.6586   89.9418    6.2555 H       1  UNL1        0.2103
      9 S          61.9949   85.9266    9.9391 S.O2    1  UNL1        0.0633
     10 O          63.0757   85.9418    8.8992 O.2     1  UNL1       -0.1528
     11 O          60.9140   85.9115   10.9791 O.2     1  UNL1       -0.1528
     12 C          62.7123   84.8299   10.6688 C.ar    1  UNL1        0.1223
     13 C          63.5869   83.8737    9.9134 C.ar    1  UNL1        0.0208
     14 C          64.3044   82.7769   10.6432 C.ar    1  UNL1        0.0128
     15 C          64.1472   82.6365   12.1283 C.ar    1  UNL1        0.0578
     16 CL         64.8647   81.5398   12.8580 Cl      1  UNL1       -0.0822
     17 C          63.2726   83.5927   12.8837 C.ar    1  UNL1        0.0128
     18 C          62.5552   84.6894   12.1540 C.ar    1  UNL1        0.0208
     19 C          61.3479   84.8127    6.4328 C.3     1  UNL1        0.0015
     20 C          60.3919   85.2955    7.4830 C.3     1  UNL1        0.0178
     21 C          62.1628   88.7512   10.9359 C.3     1  UNL1        0.2277
     22 O          62.0933   90.1198   11.5457 O.3     1  UNL1       -0.4330
     23 C          63.1921   91.1096   11.2943 C.2     1  UNL1        0.4050
     24 O          63.3259   91.7555    9.9471 O.2     1  UNL1       -0.2262
     25 N          64.1569   91.4535   12.3901 N.am    1  UNL1       -0.2432
     26 C          64.0231   90.8077   13.7373 C.3     1  UNL1        0.1141
     27 C          64.9880   91.1516   14.8330 C.3     1  UNL1        0.0941
     28 N          66.0867   92.1414   14.5816 N.3     1  UNL1       -0.2676
     29 C          66.2205   92.7873   13.2344 C.3     1  UNL1        0.0941
     30 C          65.2556   92.4433   12.1386 C.3     1  UNL1        0.1141
     31 C          67.0516   92.4853   15.6773 C.3     1  UNL1        0.1043
     32 C          68.3514   93.1578   15.3484 C.3     1  UNL1        0.1544
     33 O          69.3749   92.4450   14.5151 O.3     1  UNL1       -0.3805
     34 H          69.7089   91.6753   15.0018 H       1  UNL1        0.2105
@<TRIPOS>BOND
     1    19    20    1
     2     1    20    1
     3     1     2    1
     4     2     3    1
     5     3     4    1
     6     3     5    1
     7     5     6    1
     8     6    21    1
     9    21    22    1
    10    22    23    1
    11    23    24    2
    12    23    25   am
    13    25    26    1
    14    26    27    1
    15    27    28    1
    16    28    31    1
    17    31    32    1
    18    32    33    1
    19    28    29    1
    20    29    30    1
    21     6     7    1
    22     7     9    1
    23     9    10    2
    24     9    11    2
    25     9    12    1
    26    12    13   ar
    27    13    14   ar
    28    14    15   ar
    29    15    16    1
    30    15    17   ar
    31    17    18   ar
    32     7     1    1
    33    18    12   ar
    34    30    25    1
    35     4     8    1
    36    33    34    1
@<TRIPOS>MOLECULE
*****
 34 36 0 0 0
SMALL
GASTEIGER

@<TRIPOS>ATOM
      1 C          60.4279   86.7395    7.9672 C.3     1  UNL1        0.0821
      2 C          59.7084   87.8558    7.2701 C.3     1  UNL1        0.0470
      3 C          59.8490   89.2642    7.7666 C.3     1  UNL1        0.1134
      4 O          59.1293   90.3806    7.0694 O.3     1  UNL1       -0.3844
      5 C          60.7091   89.5564    8.9601 C.3     1  UNL1        0.0508
      6 C          61.4287   88.4401    9.6573 C.3     1  UNL1        0.1256
      7 N          61.2881   87.0316    9.1608 N.3     1  UNL1       -0.1544
      8 H          58.6219   90.0226    6.3242 H       1  UNL1        0.2103
      9 S          62.0077   85.9153    9.8580 S.O2    1  UNL1        0.0633
     10 O          63.0796   85.9513    8.8093 O.2     1  UNL1       -0.1528
     11 O          60.9358   85.8792   10.9066 O.2     1  UNL1       -0.1528
     12 C          62.7273   84.7990   10.5551 C.ar    1  UNL1        0.1223
     13 C          63.6074   83.8698    9.7727 C.ar    1  UNL1        0.0208
     14 C          64.3270   82.7535   10.4700 C.ar    1  UNL1        0.0128
     15 C          64.1664   82.5664   11.9496 C.ar    1  UNL1        0.0578
     16 CL         64.8860   81.4501   12.6468 Cl      1  UNL1       -0.0822
     17 C          63.2863   83.4955   12.7320 C.ar    1  UNL1        0.0128
     18 C          62.5668   84.6118   12.0348 C.ar    1  UNL1        0.0208
     19 C          61.2656   84.7864    6.4726 C.3     1  UNL1        0.0015
     20 C          60.2873   85.3310    7.4707 C.3     1  UNL1        0.0178
     21 C          62.2889   88.7322   10.8509 C.3     1  UNL1        0.2277
     22 O          61.7950   89.6579   11.9228 O.3     1  UNL1       -0.4330
     23 C          62.7642   90.2697   12.8906 C.2     1  UNL1        0.4050
     24 O          62.6832   89.9295   14.3492 O.2     1  UNL1       -0.2262
     25 N          63.8143   91.2216   12.3996 N.am    1  UNL1       -0.2432
     26 C          63.8954   91.5618   10.9410 C.3     1  UNL1        0.1141
     27 C          64.9455   92.5137   10.4500 C.3     1  UNL1        0.0941
     28 N          65.9146   93.1255   11.4178 N.3     1  UNL1       -0.2676
     29 C          65.8336   92.7853   12.8765 C.3     1  UNL1        0.0941
     30 C          64.7834   91.8334   13.3674 C.3     1  UNL1        0.1141
     31 C          66.9648   94.0774   10.9269 C.3     1  UNL1        0.1043
     32 C          67.7349   93.7656    9.6781 C.3     1  UNL1        0.1544
     33 O          69.1860   93.3958    9.7645 O.3     1  UNL1       -0.3805
     34 H          69.6953   94.1572   10.0834 H       1  UNL1        0.2105
@<TRIPOS>BOND
     1    19    20    1
     2     1    20    1
     3     1     2    1
     4     2     3    1
     5     3     4    1
     6     3     5    1
     7     5     6    1
     8     6    21    1
     9    21    22    1
    10    22    23    1
    11    23    24    2
    12    23    25   am
    13    25    26    1
    14    26    27    1
    15    27    28    1
    16    28    31    1
    17    31    32    1
    18    32    33    1
    19    28    29    1
    20    29    30    1
    21     6     7    1
    22     7     9    1
    23     9    10    2
    24     9    11    2
    25     9    12    1
    26    12    13   ar
    27    13    14   ar
    28    14    15   ar
    29    15    16    1
    30    15    17   ar
    31    17    18   ar
    32     7     1    1
    33    18    12   ar
    34    30    25    1
    35     4     8    1
    36    33    34    1
@<TRIPOS>MOLECULE
*****
 34 36 0 0 0
SMALL
GASTEIGER

@<TRIPOS>ATOM
      1 C          64.8935   91.6901   12.9159 C.3     1  UNL1        0.0821
      2 C          65.7097   92.4968   13.8818 C.3     1  UNL1        0.0470
      3 C          65.6161   92.2236   15.3537 C.3     1  UNL1        0.1134
      4 O          66.4323   93.0304   16.3196 O.3     1  UNL1       -0.3844
      5 C          64.7064   91.1436   15.8597 C.3     1  UNL1        0.0508
      6 C          63.8903   90.3369   14.8938 C.3     1  UNL1        0.1256
      7 N          63.9839   90.6101   13.4219 N.3     1  UNL1       -0.1544
      8 H          66.9614   93.6806   15.8316 H       1  UNL1        0.2103
      9 S          63.1677   89.8033   12.4559 S.O2    1  UNL1        0.0633
     10 O          63.9399   88.5732   12.8308 O.2     1  UNL1       -0.1528
     11 O          62.3954   91.0333   12.0811 O.2     1  UNL1       -0.1528
     12 C          62.3515   88.9965   11.4901 C.ar    1  UNL1        0.1223
     13 C          62.4589   87.5004   11.4842 C.ar    1  UNL1        0.0208
     14 C          61.6427   86.6936   10.5182 C.ar    1  UNL1        0.0128
     15 C          60.7191   87.3830    9.5582 C.ar    1  UNL1        0.0578
     16 CL         59.9029   86.5763    8.5923 Cl      1  UNL1       -0.0822
     17 C          60.6117   88.8792    9.5640 C.ar    1  UNL1        0.0128
     18 C          61.4279   89.6859   10.5299 C.ar    1  UNL1        0.0208
     19 C          66.1447   92.7458   10.8985 C.3     1  UNL1        0.0015
     20 C          64.9871   91.9633   11.4439 C.3     1  UNL1        0.0178
     21 C          62.9805   89.2569   15.3998 C.3     1  UNL1        0.2277
     22 O          63.5180   88.1843   16.3002 O.3     1  UNL1       -0.4330
     23 C          62.7571   86.9040   16.4787 C.2     1  UNL1        0.4050
     24 O          61.6353   86.8305   17.4718 O.2     1  UNL1       -0.2262
     25 N          63.1179   85.6972   15.6642 N.am    1  UNL1       -0.2432
     26 C          64.2397   85.7707   14.6711 C.3     1  UNL1        0.1141
     27 C          64.6005   84.5640   13.8566 C.3     1  UNL1        0.0941
     28 N          63.8396   83.2836   14.0351 N.3     1  UNL1       -0.2676
     29 C          62.7179   83.2101   15.0282 C.3     1  UNL1        0.0941
     30 C          62.3570   84.4170   15.8428 C.3     1  UNL1        0.1141
     31 C          64.2005   82.0769   13.2206 C.3     1  UNL1        0.1043
     32 C          64.0109   82.0923   11.7327 C.3     1  UNL1        0.1544
     33 O          65.0026   82.7998   10.8576 O.3     1  UNL1       -0.3805
     34 H          64.9686   83.7528   11.0354 H       1  UNL1        0.2105
@<TRIPOS>BOND
     1    19    20    1
     2     1    20    1
     3     1     2    1
     4     2     3    1
     5     3     4    1
     6     3     5    1
     7     5     6    1
     8     6    21    1
     9    21    22    1
    10    22    23    1
    11    23    24    2
    12    23    25   am
    13    25    26    1
    14    26    27    1
    15    27    28    1
    16    28    31    1
    17    31    32    1
    18    32    33    1
    19    28    29    1
    20    29    30    1
    21     6     7    1
    22     7     9    1
    23     9    10    2
    24     9    11    2
    25     9    12    1
    26    12    13   ar
    27    13    14   ar
    28    14    15   ar
    29    15    16    1
    30    15    17   ar
    31    17    18   ar
    32     7     1    1
    33    18    12   ar
    34    30    25    1
    35     4     8    1
    36    33    34    1
@<TRIPOS>MOLECULE
*****
 34 36 0 0 0
SMALL
GASTEIGER

@<TRIPOS>ATOM
      1 C          62.8564   85.2014   12.2969 C.3     1  UNL1        0.0821
      2 C          63.6822   84.7257   13.4552 C.3     1  UNL1        0.0470
      3 C          64.3454   85.7198   14.3619 C.3     1  UNL1        0.1134
      4 O          65.1712   85.2440   15.5203 O.3     1  UNL1       -0.3844
      5 C          64.1828   87.1895   14.1102 C.3     1  UNL1        0.0508
      6 C          63.3570   87.6652   12.9519 C.3     1  UNL1        0.1256
      7 N          62.6938   86.6711   12.0453 N.3     1  UNL1       -0.1544
      8 H          65.1730   84.2742   15.5394 H       1  UNL1        0.2103
      9 S          61.8680   87.1469   10.8869 S.O2    1  UNL1        0.0633
     10 O          60.6903   87.3235   11.7989 O.2     1  UNL1       -0.1528
     11 O          63.0456   86.9702    9.9748 O.2     1  UNL1       -0.1528
     12 C          61.0422   87.6226    9.7286 C.ar    1  UNL1        0.1223
     13 C          60.9338   89.0900    9.4373 C.ar    1  UNL1        0.0208
     14 C          60.1080   89.5657    8.2789 C.ar    1  UNL1        0.0128
     15 C          59.3907   88.5740    7.4118 C.ar    1  UNL1        0.0578
     16 CL         58.5649   89.0497    6.2535 Cl      1  UNL1       -0.0822
     17 C          59.4991   87.1065    7.7030 C.ar    1  UNL1        0.0128
     18 C          60.3249   86.6308    8.8614 C.ar    1  UNL1        0.0208
     19 C          62.5930   82.7625   11.4411 C.3     1  UNL1        0.0015
     20 C          62.1932   84.2073   11.3903 C.3     1  UNL1        0.0178
     21 C          63.1944   89.1350   12.7002 C.3     1  UNL1        0.2277
     22 O          63.0000   90.0761   13.8519 O.3     1  UNL1       -0.4330
     23 C          64.1020   91.0132   14.2489 C.2     1  UNL1        0.4050
     24 O          64.4995   91.1357   15.6901 O.2     1  UNL1       -0.2262
     25 N          64.8065   91.8277   13.2048 N.am    1  UNL1       -0.2432
     26 C          64.4091   91.7053   11.7636 C.3     1  UNL1        0.1141
     27 C          65.1135   92.5198   10.7195 C.3     1  UNL1        0.0941
     28 N          66.2155   93.4569   11.1166 N.3     1  UNL1       -0.2676
     29 C          66.6130   93.5793   12.5578 C.3     1  UNL1        0.0941
     30 C          65.9084   92.7647   13.6019 C.3     1  UNL1        0.1141
     31 C          66.9200   94.2714   10.0725 C.3     1  UNL1        0.1043
     32 C          67.9484   93.6302    9.1887 C.3     1  UNL1        0.1544
     33 O          69.2885   93.2542    9.7478 O.3     1  UNL1       -0.3805
     34 H          69.7701   94.0572   10.0010 H       1  UNL1        0.2105
@<TRIPOS>BOND
     1    19    20    1
     2     1    20    1
     3     1     2    1
     4     2     3    1
     5     3     4    1
     6     3     5    1
     7     5     6    1
     8     6    21    1
     9    21    22    1
    10    22    23    1
    11    23    24    2
    12    23    25   am
    13    25    26    1
    14    26    27    1
    15    27    28    1
    16    28    31    1
    17    31    32    1
    18    32    33    1
    19    28    29    1
    20    29    30    1
    21     6     7    1
    22     7     9    1
    23     9    10    2
    24     9    11    2
    25     9    12    1
    26    12    13   ar
    27    13    14   ar
    28    14    15   ar
    29    15    16    1
    30    15    17   ar
    31    17    18   ar
    32     7     1    1
    33    18    12   ar
    34    30    25    1
    35     4     8    1
    36    33    34    1
@<TRIPOS>MOLECULE
*****
 34 36 0 0 0
SMALL
GASTEIGER

@<TRIPOS>ATOM
      1 C          62.8094   84.7442   12.3552 C.3     1  UNL1        0.0821
      2 C          63.6194   84.2126   13.5002 C.3     1  UNL1        0.0470
      3 C          64.3717   85.1578   14.3894 C.3     1  UNL1        0.1134
      4 O          65.1818   84.6260   15.5345 O.3     1  UNL1       -0.3844
      5 C          64.3140   86.6346   14.1335 C.3     1  UNL1        0.0508
      6 C          63.5040   87.1663   12.9885 C.3     1  UNL1        0.1256
      7 N          62.7517   86.2211   12.0993 N.3     1  UNL1       -0.1544
      8 H          65.1119   83.6589   15.5584 H       1  UNL1        0.2103
      9 S          61.9416   86.7528   10.9542 S.O2    1  UNL1        0.0633
     10 O          63.0315   86.3609   10.0011 O.2     1  UNL1       -0.1528
     11 O          60.8517   87.1447   11.9073 O.2     1  UNL1       -0.1528
     12 C          61.1316   87.2845    9.8092 C.ar    1  UNL1        0.1223
     13 C          60.9386   88.7635    9.6500 C.ar    1  UNL1        0.0208
     14 C          60.1285   89.2952    8.5049 C.ar    1  UNL1        0.0128
     15 C          59.5114   88.3479    7.5192 C.ar    1  UNL1        0.0578
     16 CL         58.7013   88.8796    6.3742 Cl      1  UNL1       -0.0822
     17 C          59.7043   86.8689    7.6784 C.ar    1  UNL1        0.0128
     18 C          60.5144   86.3372    8.8234 C.ar    1  UNL1        0.0208
     19 C          62.7731   82.6556   10.8104 C.3     1  UNL1        0.0015
     20 C          62.0571   83.7990   11.4660 C.3     1  UNL1        0.0178
     21 C          63.4462   88.6432   12.7325 C.3     1  UNL1        0.2277
     22 O          62.5038   89.5045   13.5198 O.3     1  UNL1       -0.4330
     23 C          62.9168   90.0381   14.8595 C.2     1  UNL1        0.4050
     24 O          62.1513   89.6503   16.0898 O.2     1  UNL1       -0.2262
     25 N          64.0953   90.9596   14.9689 N.am    1  UNL1       -0.2432
     26 C          64.8608   91.3475   13.7386 C.3     1  UNL1        0.1141
     27 C          66.0393   92.2689   13.8480 C.3     1  UNL1        0.0941
     28 N          66.4524   92.8026   15.1877 N.3     1  UNL1       -0.2676
     29 C          65.6869   92.4147   16.4179 C.3     1  UNL1        0.0941
     30 C          64.5083   91.4932   16.3085 C.3     1  UNL1        0.1141
     31 C          67.6309   93.7240   15.2970 C.3     1  UNL1        0.1043
     32 C          69.0187   93.1605   15.3775 C.3     1  UNL1        0.1544
     33 O          69.6123   92.4570   14.1931 O.3     1  UNL1       -0.3805
     34 H          69.1160   91.6420   14.0189 H       1  UNL1        0.2105
@<TRIPOS>BOND
     1    19    20    1
     2     1    20    1
     3     1     2    1
     4     2     3    1
     5     3     4    1
     6     3     5    1
     7     5     6    1
     8     6    21    1
     9    21    22    1
    10    22    23    1
    11    23    24    2
    12    23    25   am
    13    25    26    1
    14    26    27    1
    15    27    28    1
    16    28    31    1
    17    31    32    1
    18    32    33    1
    19    28    29    1
    20    29    30    1
    21     6     7    1
    22     7     9    1
    23     9    10    2
    24     9    11    2
    25     9    12    1
    26    12    13   ar
    27    13    14   ar
    28    14    15   ar
    29    15    16    1
    30    15    17   ar
    31    17    18   ar
    32     7     1    1
    33    18    12   ar
    34    30    25    1
    35     4     8    1
    36    33    34    1
@<TRIPOS>MOLECULE
*****
 34 36 0 0 0
SMALL
GASTEIGER

@<TRIPOS>ATOM
      1 C          62.8894   84.2925   13.9823 C.3     1  UNL1        0.0821
      2 C          63.2388   84.3588   15.4395 C.3     1  UNL1        0.0470
      3 C          63.7224   85.6469   16.0370 C.3     1  UNL1        0.1134
      4 O          64.0718   85.7131   17.4943 O.3     1  UNL1       -0.3844
      5 C          63.8566   86.8687   15.1773 C.3     1  UNL1        0.0508
      6 C          63.5073   86.8024   13.7201 C.3     1  UNL1        0.1256
      7 N          63.0236   85.5143   13.1226 N.3     1  UNL1       -0.1544
      8 H          63.9296   84.8439   17.9007 H       1  UNL1        0.2103
      9 S          62.6742   85.4481   11.6653 S.O2    1  UNL1        0.0633
     10 O          61.4055   86.2012   11.9352 O.2     1  UNL1       -0.1528
     11 O          63.9430   84.6949   11.3954 O.2     1  UNL1       -0.1528
     12 C          62.3249   85.3818   10.2081 C.ar    1  UNL1        0.1223
     13 C          61.0481   85.9949    9.7143 C.ar    1  UNL1        0.0208
     14 C          60.6988   85.9286    8.2570 C.ar    1  UNL1        0.0128
     15 C          61.6263   85.2492    7.2936 C.ar    1  UNL1        0.0578
     16 CL         61.2770   85.1830    5.8363 Cl      1  UNL1       -0.0822
     17 C          62.9031   84.6362    7.7874 C.ar    1  UNL1        0.0128
     18 C          63.2524   84.7024    9.2446 C.ar    1  UNL1        0.0208
     19 C          61.9877   81.8739   14.2776 C.3     1  UNL1        0.0015
     20 C          62.4058   83.0045   13.3848 C.3     1  UNL1        0.0178
     21 C          63.6415   88.0242   12.8603 C.3     1  UNL1        0.2277
     22 O          63.1382   89.3480   13.3544 O.3     1  UNL1       -0.4330
     23 C          64.1008   90.3584   13.9046 C.2     1  UNL1        0.4050
     24 O          64.4795   90.3209   15.3555 O.2     1  UNL1       -0.2262
     25 N          64.6845   91.4062   13.0040 N.am    1  UNL1       -0.2432
     26 C          64.3058   91.4437   11.5530 C.3     1  UNL1        0.1141
     27 C          64.8895   92.4915   10.6524 C.3     1  UNL1        0.0941
     28 N          65.8521   93.5019   11.2026 N.3     1  UNL1       -0.2676
     29 C          66.2308   93.4644   12.6535 C.3     1  UNL1        0.0941
     30 C          65.6470   92.4165   13.5542 C.3     1  UNL1        0.1141
     31 C          66.4359   94.5497   10.3019 C.3     1  UNL1        0.1043
     32 C          67.4528   94.1677    9.2675 C.3     1  UNL1        0.1544
     33 O          68.8321   93.7549    9.6884 O.3     1  UNL1       -0.3805
     34 H          69.2868   94.5109   10.0917 H       1  UNL1        0.2105
@<TRIPOS>BOND
     1    19    20    1
     2     1    20    1
     3     1     2    1
     4     2     3    1
     5     3     4    1
     6     3     5    1
     7     5     6    1
     8     6    21    1
     9    21    22    1
    10    22    23    1
    11    23    24    2
    12    23    25   am
    13    25    26    1
    14    26    27    1
    15    27    28    1
    16    28    31    1
    17    31    32    1
    18    32    33    1
    19    28    29    1
    20    29    30    1
    21     6     7    1
    22     7     9    1
    23     9    10    2
    24     9    11    2
    25     9    12    1
    26    12    13   ar
    27    13    14   ar
    28    14    15   ar
    29    15    16    1
    30    15    17   ar
    31    17    18   ar
    32     7     1    1
    33    18    12   ar
    34    30    25    1
    35     4     8    1
    36    33    34    1
@<TRIPOS>MOLECULE
*****
 34 36 0 0 0
SMALL
GASTEIGER

@<TRIPOS>ATOM
      1 C          62.5124   84.3802   14.5162 C.3     1  UNL1        0.0821
      2 C          62.6396   84.5421   16.0020 C.3     1  UNL1        0.0470
      3 C          63.1865   85.8166   16.5734 C.3     1  UNL1        0.1134
      4 O          63.3136   85.9785   18.0593 O.3     1  UNL1       -0.3844
      5 C          63.6062   86.9292   15.6591 C.3     1  UNL1        0.0508
      6 C          63.4790   86.7672   14.1734 C.3     1  UNL1        0.1256
      7 N          62.9322   85.4927   13.6019 N.3     1  UNL1       -0.1544
      8 H          63.0008   85.1732   18.5002 H       1  UNL1        0.2103
      9 S          62.8050   85.3308   12.1160 S.O2    1  UNL1        0.0633
     10 O          64.0746   84.5324   12.0943 O.2     1  UNL1       -0.1528
     11 O          61.5354   86.1292   12.1377 O.2     1  UNL1       -0.1528
     12 C          62.6778   85.1690   10.6303 C.ar    1  UNL1        0.1223
     13 C          61.6948   86.0055    9.8661 C.ar    1  UNL1        0.0208
     14 C          61.5677   85.8435    8.3802 C.ar    1  UNL1        0.0128
     15 C          62.4235   84.8452    7.6586 C.ar    1  UNL1        0.0578
     16 CL         62.2963   84.6833    6.1728 Cl      1  UNL1       -0.0822
     17 C          63.4065   84.0087    8.4228 C.ar    1  UNL1        0.0128
     18 C          63.5337   84.1706    9.9086 C.ar    1  UNL1        0.0208
     19 C          62.6900   81.8115   14.1691 C.3     1  UNL1        0.0015
     20 C          61.9656   83.1057   13.9447 C.3     1  UNL1        0.0178
     21 C          63.8987   87.8798   13.2590 C.3     1  UNL1        0.2277
     22 O          62.9834   89.0452   13.0264 O.3     1  UNL1       -0.4330
     23 C          63.4962   90.2764   12.3398 C.2     1  UNL1        0.4050
     24 O          62.9831   90.6452   10.9794 O.2     1  UNL1       -0.2262
     25 N          64.5220   91.1387   13.0137 N.am    1  UNL1       -0.2432
     26 C          65.0350   90.7698   14.3741 C.3     1  UNL1        0.1141
     27 C          66.0608   91.6321   15.0480 C.3     1  UNL1        0.0941
     28 N          66.5736   92.8633   14.3615 N.3     1  UNL1       -0.2676
     29 C          66.0605   93.2321   13.0010 C.3     1  UNL1        0.0941
     30 C          65.0347   92.3698   12.3272 C.3     1  UNL1        0.1141
     31 C          67.5994   93.7256   15.0354 C.3     1  UNL1        0.1043
     32 C          68.9406   93.1563   15.3917 C.3     1  UNL1        0.1544
     33 O          69.7417   92.4209   14.3586 O.3     1  UNL1       -0.3805
     34 H          69.2794   91.6047   14.1116 H       1  UNL1        0.2105
@<TRIPOS>BOND
     1    19    20    1
     2     1    20    1
     3     1     2    1
     4     2     3    1
     5     3     4    1
     6     3     5    1
     7     5     6    1
     8     6    21    1
     9    21    22    1
    10    22    23    1
    11    23    24    2
    12    23    25   am
    13    25    26    1
    14    26    27    1
    15    27    28    1
    16    28    31    1
    17    31    32    1
    18    32    33    1
    19    28    29    1
    20    29    30    1
    21     6     7    1
    22     7     9    1
    23     9    10    2
    24     9    11    2
    25     9    12    1
    26    12    13   ar
    27    13    14   ar
    28    14    15   ar
    29    15    16    1
    30    15    17   ar
    31    17    18   ar
    32     7     1    1
    33    18    12   ar
    34    30    25    1
    35     4     8    1
    36    33    34    1
@<TRIPOS>MOLECULE
*****
 34 36 0 0 0
SMALL
GASTEIGER

@<TRIPOS>ATOM
      1 C          62.5196   84.4178   14.7672 C.3     1  UNL1        0.0821
      2 C          62.5924   84.5954   16.2548 C.3     1  UNL1        0.0470
      3 C          63.1419   85.8659   16.8326 C.3     1  UNL1        0.1134
      4 O          63.2146   86.0434   18.3203 O.3     1  UNL1       -0.3844
      5 C          63.6185   86.9590   15.9226 C.3     1  UNL1        0.0508
      6 C          63.5457   86.7815   14.4350 C.3     1  UNL1        0.1256
      7 N          62.9963   85.5109   13.8573 N.3     1  UNL1       -0.1544
      8 H          62.8691   85.2497   18.7579 H       1  UNL1        0.2103
      9 S          62.9235   85.3334   12.3695 S.O2    1  UNL1        0.0633
     10 O          64.1890   84.5289   12.4035 O.2     1  UNL1       -0.1528
     11 O          61.6580   86.1379   12.3355 O.2     1  UNL1       -0.1528
     12 C          62.8507   85.1559   10.8819 C.ar    1  UNL1        0.1223
     13 C          62.0461   86.1112   10.0511 C.ar    1  UNL1        0.0208
     14 C          61.9733   85.9337    8.5633 C.ar    1  UNL1        0.0128
     15 C          62.7051   84.8010    7.9065 C.ar    1  UNL1        0.0578
     16 CL         62.6323   84.6235    6.4188 Cl      1  UNL1       -0.0822
     17 C          63.5096   83.8457    8.7373 C.ar    1  UNL1        0.0128
     18 C          63.5824   84.0232   10.2249 C.ar    1  UNL1        0.0208
     19 C          62.8126   81.9064   14.1700 C.3     1  UNL1        0.0015
     20 C          61.9702   83.1473   14.1895 C.3     1  UNL1        0.0178
     21 C          64.0224   87.8745   13.5250 C.3     1  UNL1        0.2277
     22 O          63.2168   89.1310   13.3759 O.3     1  UNL1       -0.4330
     23 C          63.1885   89.8522   12.0609 C.2     1  UNL1        0.4050
     24 O          62.3264   89.3423   10.9443 O.2     1  UNL1       -0.2262
     25 N          64.0221   91.0833   11.8626 N.am    1  UNL1       -0.2432
     26 C          64.8842   91.5932   12.9792 C.3     1  UNL1        0.1141
     27 C          65.7179   92.8243   12.7809 C.3     1  UNL1        0.0941
     28 N          65.6895   93.5455   11.4659 N.3     1  UNL1       -0.2676
     29 C          64.8275   93.0356   10.3493 C.3     1  UNL1        0.0941
     30 C          63.9938   91.8044   10.5477 C.3     1  UNL1        0.1141
     31 C          66.5232   94.7766   11.2676 C.3     1  UNL1        0.1043
     32 C          67.2570   94.9854    9.9761 C.3     1  UNL1        0.1544
     33 O          68.4743   94.1664    9.6642 O.3     1  UNL1       -0.3805
     34 H          69.1816   94.3870   10.2902 H       1  UNL1        0.2105
@<TRIPOS>BOND
     1    19    20    1
     2     1    20    1
     3     1     2    1
     4     2     3    1
     5     3     4    1
     6     3     5    1
     7     5     6    1
     8     6    21    1
     9    21    22    1
    10    22    23    1
    11    23    24    2
    12    23    25   am
    13    25    26    1
    14    26    27    1
    15    27    28    1
    16    28    31    1
    17    31    32    1
    18    32    33    1
    19    28    29    1
    20    29    30    1
    21     6     7    1
    22     7     9    1
    23     9    10    2
    24     9    11    2
    25     9    12    1
    26    12    13   ar
    27    13    14   ar
    28    14    15   ar
    29    15    16    1
    30    15    17   ar
    31    17    18   ar
    32     7     1    1
    33    18    12   ar
    34    30    25    1
    35     4     8    1
    36    33    34    1
@<TRIPOS>MOLECULE
*****
 34 36 0 0 0
SMALL
GASTEIGER

@<TRIPOS>ATOM
      1 C          62.5507   81.0191   12.6814 C.3     1  UNL1        0.0821
      2 C          62.5268   79.9303   11.6500 C.3     1  UNL1        0.0470
      3 C          63.0530   80.1927   10.2700 C.3     1  UNL1        0.1134
      4 O          63.0292   79.1038    9.2386 O.3     1  UNL1       -0.3844
      5 C          63.6031   81.5440    9.9215 C.3     1  UNL1        0.0508
      6 C          63.6269   82.6328   10.9529 C.3     1  UNL1        0.1256
      7 N          63.1007   82.3704   12.3328 N.3     1  UNL1       -0.1544
      8 H          62.6452   78.3011    9.6247 H       1  UNL1        0.2103
      9 S          63.1246   83.4593   13.3643 S.O2    1  UNL1        0.0633
     10 O          61.8347   84.0005   12.8228 O.2     1  UNL1       -0.1528
     11 O          64.4145   82.9181   13.9057 O.2     1  UNL1       -0.1528
     12 C          63.1485   84.5481   14.3957 C.ar    1  UNL1        0.1223
     13 C          62.2851   84.4427   15.6178 C.ar    1  UNL1        0.0208
     14 C          62.3091   85.5316   16.6492 C.ar    1  UNL1        0.0128
     15 C          63.1963   86.7259   16.4585 C.ar    1  UNL1        0.0578
     16 CL         63.2202   87.8147   17.4899 Cl      1  UNL1       -0.0822
     17 C          64.0596   86.8314   15.2364 C.ar    1  UNL1        0.0128
     18 C          64.0357   85.7425   14.2050 C.ar    1  UNL1        0.0208
     19 C          60.5458   80.6615   14.2946 C.3     1  UNL1        0.0015
     20 C          62.0245   80.7567   14.0613 C.3     1  UNL1        0.0178
     21 C          64.1770   83.9841   10.6044 C.3     1  UNL1        0.2277
     22 O          64.1537   84.4593    9.1818 O.3     1  UNL1       -0.4330
     23 C          62.8892   85.0159    8.5976 C.2     1  UNL1        0.4050
     24 O          62.4185   84.5537    7.2505 O.2     1  UNL1       -0.2262
     25 N          62.0956   86.0348    9.3604 N.am    1  UNL1       -0.2432
     26 C          62.5663   86.4970   10.7076 C.3     1  UNL1        0.1141
     27 C          61.7726   87.5159   11.4704 C.3     1  UNL1        0.0941
     28 N          60.5081   88.0725   10.8862 N.3     1  UNL1       -0.2676
     29 C          60.0374   87.6103    9.5390 C.3     1  UNL1        0.0941
     30 C          60.8311   86.5914    8.7762 C.3     1  UNL1        0.1141
     31 C          59.7145   89.0914   11.6490 C.3     1  UNL1        0.1043
     32 C          59.7148   90.5253   11.2089 C.3     1  UNL1        0.1544
     33 O          58.6094   91.4427   11.6408 O.3     1  UNL1       -0.3805
     34 H          57.7738   91.1513   11.2437 H       1  UNL1        0.2105
@<TRIPOS>BOND
     1    19    20    1
     2     1    20    1
     3     1     2    1
     4     2     3    1
     5     3     4    1
     6     3     5    1
     7     5     6    1
     8     6    21    1
     9    21    22    1
    10    22    23    1
    11    23    24    2
    12    23    25   am
    13    25    26    1
    14    26    27    1
    15    27    28    1
    16    28    31    1
    17    31    32    1
    18    32    33    1
    19    28    29    1
    20    29    30    1
    21     6     7    1
    22     7     9    1
    23     9    10    2
    24     9    11    2
    25     9    12    1
    26    12    13   ar
    27    13    14   ar
    28    14    15   ar
    29    15    16    1
    30    15    17   ar
    31    17    18   ar
    32     7     1    1
    33    18    12   ar
    34    30    25    1
    35     4     8    1
    36    33    34    1
