@<TRIPOS>MOLECULE
*****
 30 32 0 0 0
SMALL
GASTEIGER

@<TRIPOS>ATOM
      1 N          63.2584   89.0883   12.6598 N.pl3   1  UNL1       -0.2872
      2 N          63.9381   84.8002   13.8432 N.3     1  UNL1       -0.2705
      3 C          63.1515   85.1215   12.6071 C.3     1  UNL1        0.0739
      4 C          62.9249   86.5508   12.2126 C.3     1  UNL1        0.0374
      5 C          63.4849   87.6589   13.0543 C.3     1  UNL1        0.0800
      6 C          64.2716   87.3377   14.2904 C.3     1  UNL1        0.0374
      7 C          64.4981   85.9083   14.6848 C.3     1  UNL1        0.0739
      8 C          64.1646   83.3709   14.2377 C.3     1  UNL1        0.1017
      9 C          63.9940   82.2774   13.2253 C.3     1  UNL1        0.1263
     10 O          65.0000   82.1100   12.1252 O.3     1  UNL1       -0.3830
     11 H          64.7426   81.3630   11.5626 H       1  UNL1        0.2104
     12 C          62.7247   80.1675   12.3960 C.3     1  UNL1        0.0025
     13 C          62.8173   81.3511   13.3128 C.3     1  UNL1        0.0283
     14 C          61.7334   81.6085   14.3172 C.3     1  UNL1        0.0025
     15 C          64.1671   90.1627   13.1792 C.ar    1  UNL1        0.0515
     16 C          64.5394   91.3198   12.3002 C.ar    1  UNL1        0.0148
     17 C          65.4481   92.3943   12.8196 C.ar    1  UNL1        0.0051
     18 C          65.9845   92.3117   14.2179 C.ar    1  UNL1        0.0715
     19 C          65.6122   91.1547   15.0969 C.ar    1  UNL1        0.0051
     20 C          64.7034   90.0802   14.5776 C.ar    1  UNL1        0.0148
     21 C          66.8932   93.3863   14.7373 C.3     1  UNL1        0.4186
     22 F          67.8019   94.4608   15.2566 F       1  UNL1       -0.1659
     23 F          67.3252   92.4817   15.8531 F       1  UNL1       -0.1659
     24 F          66.4612   94.2908   13.6215 F       1  UNL1       -0.1659
     25 C          62.1231   89.4432   11.7459 C.ar    1  UNL1        0.0710
     26 C          62.2873   89.3136   10.2606 C.ar    1  UNL1        0.0180
     27 C          61.1520   89.6685    9.3467 C.ar    1  UNL1        0.0220
     28 C          59.8525   90.1531    9.9182 C.ar    1  UNL1        0.0990
     29 N          59.6883   90.2827   11.4035 N.ar    1  UNL1       -0.2410
     30 C          60.8236   89.9278   12.3174 C.ar    1  UNL1        0.1136
@<TRIPOS>BOND
     1    12    13    1
     2    13    14    1
     3    13     9    1
     4     9    10    1
     5     9     8    1
     6     8     2    1
     7     2     3    1
     8     3     4    1
     9     4     5    1
    10     5     1    1
    11     1    15    1
    12    15    16   ar
    13    16    17   ar
    14    17    18   ar
    15    18    21    1
    16    21    22    1
    17    21    23    1
    18    21    24    1
    19    18    19   ar
    20    19    20   ar
    21     1    25    1
    22    25    26   ar
    23    26    27   ar
    24    27    28   ar
    25    28    29   ar
    26    29    30   ar
    27     5     6    1
    28     6     7    1
    29     7     2    1
    30    20    15   ar
    31    30    25   ar
    32    10    11    1
@<TRIPOS>MOLECULE
*****
 30 32 0 0 0
SMALL
GASTEIGER

@<TRIPOS>ATOM
      1 N          62.0398   86.8465   10.7663 N.pl3   1  UNL1       -0.2872
      2 N          63.8255   90.7604   12.0864 N.3     1  UNL1       -0.2705
      3 C          63.8556   89.5746   13.0046 C.3     1  UNL1        0.0739
      4 C          63.2604   88.2700   12.5645 C.3     1  UNL1        0.0374
      5 C          62.6351   88.1511   11.2064 C.3     1  UNL1        0.0800
      6 C          62.6049   89.3368   10.2882 C.3     1  UNL1        0.0374
      7 C          63.2001   90.6415   10.7282 C.3     1  UNL1        0.0739
      8 C          64.4207   92.0650   12.5264 C.3     1  UNL1        0.1017
      9 C          65.4413   92.7513   11.6677 C.3     1  UNL1        0.1263
     10 O          65.0122   93.8039   10.6888 O.3     1  UNL1       -0.3830
     11 H          65.7892   94.1434   10.2179 H       1  UNL1        0.2104
     12 C          67.4799   92.0866   13.1348 C.3     1  UNL1        0.0025
     13 C          66.8909   92.3852   11.7879 C.3     1  UNL1        0.0283
     14 C          67.7516   92.3177   10.5612 C.3     1  UNL1        0.0025
     15 C          62.4561   85.5692   11.4335 C.ar    1  UNL1        0.0515
     16 C          63.1338   84.4934   10.6375 C.ar    1  UNL1        0.0148
     17 C          63.5500   83.2161   11.3047 C.ar    1  UNL1        0.0051
     18 C          63.2887   83.0146   12.7680 C.ar    1  UNL1        0.0715
     19 C          62.6112   84.0902   13.5640 C.ar    1  UNL1        0.0051
     20 C          62.1948   85.3676   12.8968 C.ar    1  UNL1        0.0148
     21 C          63.7051   81.7372   13.4352 C.3     1  UNL1        0.4186
     22 F          64.1214   80.4599   14.1023 F       1  UNL1       -0.1659
     23 F          64.0809   82.5038   14.6685 F       1  UNL1       -0.1659
     24 F          63.3293   80.9706   12.2019 F       1  UNL1       -0.1659
     25 C          61.0283   86.8191    9.6591 C.ar    1  UNL1        0.0710
     26 C          61.2868   86.0034    8.4271 C.ar    1  UNL1        0.0180
     27 C          60.2752   85.9761    7.3198 C.ar    1  UNL1        0.0220
     28 C          59.0052   86.7644    7.4446 C.ar    1  UNL1        0.0990
     29 N          58.7467   87.5800    8.6766 N.ar    1  UNL1       -0.2410
     30 C          59.7582   87.6074    9.7838 C.ar    1  UNL1        0.1136
@<TRIPOS>BOND
     1    12    13    1
     2    13    14    1
     3    13     9    1
     4     9    10    1
     5     9     8    1
     6     8     2    1
     7     2     3    1
     8     3     4    1
     9     4     5    1
    10     5     1    1
    11     1    15    1
    12    15    16   ar
    13    16    17   ar
    14    17    18   ar
    15    18    21    1
    16    21    22    1
    17    21    23    1
    18    21    24    1
    19    18    19   ar
    20    19    20   ar
    21     1    25    1
    22    25    26   ar
    23    26    27   ar
    24    27    28   ar
    25    28    29   ar
    26    29    30   ar
    27     5     6    1
    28     6     7    1
    29     7     2    1
    30    20    15   ar
    31    30    25   ar
    32    10    11    1
@<TRIPOS>MOLECULE
*****
 30 32 0 0 0
SMALL
GASTEIGER

@<TRIPOS>ATOM
      1 N          62.8895   86.3813   12.4191 N.pl3   1  UNL1       -0.2872
      2 N          64.6272   90.0125   14.4304 N.3     1  UNL1       -0.2705
      3 C          64.7601   88.6636   15.0728 C.3     1  UNL1        0.0739
      4 C          64.1809   87.4532   14.4024 C.3     1  UNL1        0.0374
      5 C          63.4687   87.5917   13.0896 C.3     1  UNL1        0.0800
      6 C          63.3358   88.9406   12.4471 C.3     1  UNL1        0.0374
      7 C          63.9150   90.1510   13.1176 C.3     1  UNL1        0.0739
      8 C          65.2064   91.2229   15.1008 C.3     1  UNL1        0.1017
      9 C          66.1372   92.1250   14.3461 C.3     1  UNL1        0.1263
     10 O          65.5855   93.1468   13.3964 O.3     1  UNL1       -0.3830
     11 H          66.3161   93.6425   12.9946 H       1  UNL1        0.2104
     12 C          68.5120   91.7432   13.3639 C.3     1  UNL1        0.0025
     13 C          67.6197   92.0054   14.5408 C.3     1  UNL1        0.0283
     14 C          68.2098   92.1479   15.9124 C.3     1  UNL1        0.0025
     15 C          62.0425   86.5374   11.1911 C.ar    1  UNL1        0.0515
     16 C          60.7912   87.3631   11.2430 C.ar    1  UNL1        0.0148
     17 C          59.9441   87.5192   10.0150 C.ar    1  UNL1        0.0051
     18 C          60.3483   86.8496    8.7350 C.ar    1  UNL1        0.0715
     19 C          61.5994   86.0239    8.6831 C.ar    1  UNL1        0.0051
     20 C          62.4466   85.8678    9.9112 C.ar    1  UNL1        0.0148
     21 C          59.5011   87.0057    7.5070 C.3     1  UNL1        0.4186
     22 F          58.6540   87.1619    6.2790 F       1  UNL1       -0.1659
     23 F          59.7472   85.5687    7.1545 F       1  UNL1       -0.1659
     24 F          59.2550   88.4428    7.8595 F       1  UNL1       -0.1659
     25 C          63.1574   85.0149   12.9767 C.ar    1  UNL1        0.0710
     26 C          64.1121   84.0933   12.2773 C.ar    1  UNL1        0.0180
     27 C          64.3799   82.7268   12.8350 C.ar    1  UNL1        0.0220
     28 C          63.6930   82.2818   14.0920 C.ar    1  UNL1        0.0990
     29 N          62.7383   83.2034   14.7914 N.ar    1  UNL1       -0.2410
     30 C          62.4705   84.5699   14.2338 C.ar    1  UNL1        0.1136
@<TRIPOS>BOND
     1    12    13    1
     2    13    14    1
     3    13     9    1
     4     9    10    1
     5     9     8    1
     6     8     2    1
     7     2     3    1
     8     3     4    1
     9     4     5    1
    10     5     1    1
    11     1    15    1
    12    15    16   ar
    13    16    17   ar
    14    17    18   ar
    15    18    21    1
    16    21    22    1
    17    21    23    1
    18    21    24    1
    19    18    19   ar
    20    19    20   ar
    21     1    25    1
    22    25    26   ar
    23    26    27   ar
    24    27    28   ar
    25    28    29   ar
    26    29    30   ar
    27     5     6    1
    28     6     7    1
    29     7     2    1
    30    20    15   ar
    31    30    25   ar
    32    10    11    1
@<TRIPOS>MOLECULE
*****
 30 32 0 0 0
SMALL
GASTEIGER

@<TRIPOS>ATOM
      1 N          62.7776   85.5638   11.9615 N.pl3   1  UNL1       -0.2872
      2 N          63.8204   89.6718   13.4739 N.3     1  UNL1       -0.2705
      3 C          64.2734   88.4573   14.2287 C.3     1  UNL1        0.0739
      4 C          63.9258   87.0880   13.7246 C.3     1  UNL1        0.0374
      5 C          63.1252   86.9332   12.4656 C.3     1  UNL1        0.0800
      6 C          62.6722   88.1476   11.7108 C.3     1  UNL1        0.0374
      7 C          63.0198   89.5169   12.2150 C.3     1  UNL1        0.0739
      8 C          64.1680   91.0411   13.9781 C.3     1  UNL1        0.1017
      9 C          65.3304   91.7843   13.3894 C.3     1  UNL1        0.1263
     10 O          65.2847   92.2375   11.9602 O.3     1  UNL1       -0.3830
     11 H          66.1092   92.6989   11.7408 H       1  UNL1        0.2104
     12 C          66.3725   92.5797   15.6325 C.3     1  UNL1        0.0025
     13 C          66.5384   92.0744   14.2299 C.3     1  UNL1        0.0283
     14 C          67.9124   91.8591   13.6679 C.3     1  UNL1        0.0025
     15 C          62.5433   85.3410   10.4968 C.ar    1  UNL1        0.0515
     16 C          61.3323   85.9269    9.8333 C.ar    1  UNL1        0.0148
     17 C          61.0980   85.7041    8.3686 C.ar    1  UNL1        0.0051
     18 C          62.0747   84.8953    7.5673 C.ar    1  UNL1        0.0715
     19 C          63.2857   84.3094    8.2308 C.ar    1  UNL1        0.0051
     20 C          63.5200   84.5323    9.6955 C.ar    1  UNL1        0.0148
     21 C          61.8404   84.6725    6.1025 C.3     1  UNL1        0.4186
     22 F          61.6060   84.4497    4.6378 F       1  UNL1       -0.1659
     23 F          63.3218   84.6189    5.8736 F       1  UNL1       -0.1659
     24 F          60.3589   84.7261    6.3314 F       1  UNL1       -0.1659
     25 C          62.6642   84.4174   12.9221 C.ar    1  UNL1        0.0710
     26 C          62.6318   83.0086   12.4080 C.ar    1  UNL1        0.0180
     27 C          62.5184   81.8621   13.3686 C.ar    1  UNL1        0.0220
     28 C          62.4375   82.1244   14.8433 C.ar    1  UNL1        0.0990
     29 N          62.4700   83.5332   15.3574 N.ar    1  UNL1       -0.2410
     30 C          62.5833   84.6797   14.3968 C.ar    1  UNL1        0.1136
@<TRIPOS>BOND
     1    12    13    1
     2    13    14    1
     3    13     9    1
     4     9    10    1
     5     9     8    1
     6     8     2    1
     7     2     3    1
     8     3     4    1
     9     4     5    1
    10     5     1    1
    11     1    15    1
    12    15    16   ar
    13    16    17   ar
    14    17    18   ar
    15    18    21    1
    16    21    22    1
    17    21    23    1
    18    21    24    1
    19    18    19   ar
    20    19    20   ar
    21     1    25    1
    22    25    26   ar
    23    26    27   ar
    24    27    28   ar
    25    28    29   ar
    26    29    30   ar
    27     5     6    1
    28     6     7    1
    29     7     2    1
    30    20    15   ar
    31    30    25   ar
    32    10    11    1
@<TRIPOS>MOLECULE
*****
 30 32 0 0 0
SMALL
GASTEIGER

@<TRIPOS>ATOM
      1 N          62.3843   87.0526   11.0837 N.pl3   1  UNL1       -0.2872
      2 N          59.6360   88.5617    7.8558 N.3     1  UNL1       -0.2705
      3 C          60.1472   89.5028    8.9060 C.3     1  UNL1        0.0739
      4 C          61.0633   88.9997    9.9820 C.3     1  UNL1        0.0374
      5 C          61.4682   87.5557   10.0077 C.3     1  UNL1        0.0800
      6 C          60.9569   86.6146    8.9575 C.3     1  UNL1        0.0374
      7 C          60.0408   87.1177    7.8815 C.3     1  UNL1        0.0739
      8 C          58.7199   89.0648    6.7798 C.3     1  UNL1        0.1017
      9 C          59.1653   90.1740    5.8736 C.3     1  UNL1        0.1263
     10 O          60.6281   90.4105    5.6406 O.3     1  UNL1       -0.3830
     11 H          60.7421   91.1591    5.0344 H       1  UNL1        0.2104
     12 C          58.5921   92.2275    4.3888 C.3     1  UNL1        0.0025
     13 C          58.1479   91.0467    5.2003 C.3     1  UNL1        0.0283
     14 C          56.6864   90.7387    5.3386 C.3     1  UNL1        0.0025
     15 C          63.0155   88.0176   12.0429 C.ar    1  UNL1        0.0515
     16 C          63.6393   87.5148   13.3111 C.ar    1  UNL1        0.0148
     17 C          64.2705   88.4798   14.2704 C.ar    1  UNL1        0.0051
     18 C          64.2781   89.9476   13.9616 C.ar    1  UNL1        0.0715
     19 C          63.6544   90.4505   12.6935 C.ar    1  UNL1        0.0051
     20 C          63.0231   89.4855   11.7341 C.ar    1  UNL1        0.0148
     21 C          64.9094   90.9127   14.9209 C.3     1  UNL1        0.4186
     22 F          65.5407   91.8776   15.8802 F       1  UNL1       -0.1659
     23 F          63.7659   90.7158   15.8715 F       1  UNL1       -0.1659
     24 F          66.0528   91.1096   13.9703 F       1  UNL1       -0.1659
     25 C          62.6691   85.5846   11.2004 C.ar    1  UNL1        0.0710
     26 C          63.3051   84.8508   10.0571 C.ar    1  UNL1        0.0180
     27 C          63.5899   83.3826   10.1739 C.ar    1  UNL1        0.0220
     28 C          63.2388   82.6484   11.4338 C.ar    1  UNL1        0.0990
     29 N          62.6029   83.3822   12.5771 N.ar    1  UNL1       -0.2410
     30 C          62.3180   84.8503   12.4604 C.ar    1  UNL1        0.1136
@<TRIPOS>BOND
     1    12    13    1
     2    13    14    1
     3    13     9    1
     4     9    10    1
     5     9     8    1
     6     8     2    1
     7     2     3    1
     8     3     4    1
     9     4     5    1
    10     5     1    1
    11     1    15    1
    12    15    16   ar
    13    16    17   ar
    14    17    18   ar
    15    18    21    1
    16    21    22    1
    17    21    23    1
    18    21    24    1
    19    18    19   ar
    20    19    20   ar
    21     1    25    1
    22    25    26   ar
    23    26    27   ar
    24    27    28   ar
    25    28    29   ar
    26    29    30   ar
    27     5     6    1
    28     6     7    1
    29     7     2    1
    30    20    15   ar
    31    30    25   ar
    32    10    11    1
@<TRIPOS>MOLECULE
*****
 30 32 0 0 0
SMALL
GASTEIGER

@<TRIPOS>ATOM
      1 N          62.4783   86.3286   11.9308 N.pl3   1  UNL1       -0.2872
      2 N          64.7200   89.4256   14.3043 N.3     1  UNL1       -0.2705
      3 C          64.7394   87.9897   14.7376 C.3     1  UNL1        0.0739
      4 C          63.9922   86.9574   13.9464 C.3     1  UNL1        0.0374
      5 C          63.2255   87.3609   12.7220 C.3     1  UNL1        0.0800
      6 C          63.2060   88.7968   12.2887 C.3     1  UNL1        0.0374
      7 C          63.9533   89.8292   13.0799 C.3     1  UNL1        0.0739
      8 C          65.4672   90.4580   15.0955 C.3     1  UNL1        0.1017
      9 C          65.6286   91.8469   14.5526 C.3     1  UNL1        0.1263
     10 O          65.0387   93.0132   15.2888 O.3     1  UNL1       -0.3830
     11 H          65.2328   93.8319   14.8062 H       1  UNL1        0.2104
     12 C          65.6802   92.6615   12.0861 C.3     1  UNL1        0.0025
     13 C          66.3800   92.0696   13.2736 C.3     1  UNL1        0.0283
     14 C          67.8309   91.7006   13.1821 C.3     1  UNL1        0.0025
     15 C          62.5416   84.8849   12.3328 C.ar    1  UNL1        0.0515
     16 C          62.9510   83.8450   11.3323 C.ar    1  UNL1        0.0148
     17 C          63.0143   82.4013   11.7343 C.ar    1  UNL1        0.0051
     18 C          62.6683   81.9974   13.1368 C.ar    1  UNL1        0.0715
     19 C          62.2590   83.0372   14.1374 C.ar    1  UNL1        0.0051
     20 C          62.1956   84.4810   13.7354 C.ar    1  UNL1        0.0148
     21 C          62.7317   80.5536   13.5388 C.3     1  UNL1        0.4186
     22 F          62.7950   79.1099   13.9408 F       1  UNL1       -0.1659
     23 F          64.2274   80.6395   13.6120 F       1  UNL1       -0.1659
     24 F          61.2360   80.4677   13.4657 F       1  UNL1       -0.1659
     25 C          61.6677   86.7400   10.7376 C.ar    1  UNL1        0.0710
     26 C          62.0744   86.2934    9.3646 C.ar    1  UNL1        0.0180
     27 C          61.2637   86.7049    8.1714 C.ar    1  UNL1        0.0220
     28 C          60.0465   87.5627    8.3512 C.ar    1  UNL1        0.0990
     29 N          59.6399   88.0093    9.7243 N.ar    1  UNL1       -0.2410
     30 C          60.4505   87.5979   10.9175 C.ar    1  UNL1        0.1136
@<TRIPOS>BOND
     1    12    13    1
     2    13    14    1
     3    13     9    1
     4     9    10    1
     5     9     8    1
     6     8     2    1
     7     2     3    1
     8     3     4    1
     9     4     5    1
    10     5     1    1
    11     1    15    1
    12    15    16   ar
    13    16    17   ar
    14    17    18   ar
    15    18    21    1
    16    21    22    1
    17    21    23    1
    18    21    24    1
    19    18    19   ar
    20    19    20   ar
    21     1    25    1
    22    25    26   ar
    23    26    27   ar
    24    27    28   ar
    25    28    29   ar
    26    29    30   ar
    27     5     6    1
    28     6     7    1
    29     7     2    1
    30    20    15   ar
    31    30    25   ar
    32    10    11    1
@<TRIPOS>MOLECULE
*****
 30 32 0 0 0
SMALL
GASTEIGER

@<TRIPOS>ATOM
      1 N          62.7754   84.6790   12.7575 N.pl3   1  UNL1       -0.2872
      2 N          61.9220   88.0516    9.9031 N.3     1  UNL1       -0.2705
      3 C          61.5640   86.6438    9.5292 C.3     1  UNL1        0.0739
      4 C          61.8485   85.5196   10.4806 C.3     1  UNL1        0.0374
      5 C          62.4910   85.8032   11.8060 C.3     1  UNL1        0.0800
      6 C          62.8490   87.2110   12.1800 C.3     1  UNL1        0.0374
      7 C          62.5645   88.3352   11.2285 C.3     1  UNL1        0.0739
      8 C          61.6376   89.1758    8.9516 C.3     1  UNL1        0.1017
      9 C          60.2206   89.5773    8.6673 C.3     1  UNL1        0.1263
     10 O          59.5353   90.5823    9.5451 O.3     1  UNL1       -0.3830
     11 H          58.6312   90.7278    9.2252 H       1  UNL1        0.2104
     12 C          58.9633   87.5719    7.5960 C.3     1  UNL1        0.0025
     13 C          59.4889   88.9739    7.5052 C.3     1  UNL1        0.0283
     14 C          59.2827   89.7725    6.2523 C.3     1  UNL1        0.0025
     15 C          62.8053   83.2644   12.2596 C.ar    1  UNL1        0.0515
     16 C          62.2162   82.1639   13.0914 C.ar    1  UNL1        0.0148
     17 C          62.2461   80.7493   12.5934 C.ar    1  UNL1        0.0051
     18 C          62.8651   80.4352   11.2637 C.ar    1  UNL1        0.0715
     19 C          63.4542   81.5356   10.4319 C.ar    1  UNL1        0.0051
     20 C          63.4243   82.9503   10.9298 C.ar    1  UNL1        0.0148
     21 C          62.8950   79.0205   10.7658 C.3     1  UNL1        0.4186
     22 F          62.9249   77.6059   10.2678 F       1  UNL1       -0.1659
     23 F          62.7147   78.5227   12.1692 F       1  UNL1       -0.1659
     24 F          63.0752   79.5183    9.3624 F       1  UNL1       -0.1659
     25 C          63.0300   84.9694   14.2069 C.ar    1  UNL1        0.0710
     26 C          64.4013   85.3731   14.6614 C.ar    1  UNL1        0.0180
     27 C          64.6558   85.6636   16.1108 C.ar    1  UNL1        0.0220
     28 C          63.5391   85.5503   17.1058 C.ar    1  UNL1        0.0990
     29 N          62.1678   85.1466   16.6514 N.ar    1  UNL1       -0.2410
     30 C          61.9132   84.8561   15.2019 C.ar    1  UNL1        0.1136
@<TRIPOS>BOND
     1    12    13    1
     2    13    14    1
     3    13     9    1
     4     9    10    1
     5     9     8    1
     6     8     2    1
     7     2     3    1
     8     3     4    1
     9     4     5    1
    10     5     1    1
    11     1    15    1
    12    15    16   ar
    13    16    17   ar
    14    17    18   ar
    15    18    21    1
    16    21    22    1
    17    21    23    1
    18    21    24    1
    19    18    19   ar
    20    19    20   ar
    21     1    25    1
    22    25    26   ar
    23    26    27   ar
    24    27    28   ar
    25    28    29   ar
    26    29    30   ar
    27     5     6    1
    28     6     7    1
    29     7     2    1
    30    20    15   ar
    31    30    25   ar
    32    10    11    1
@<TRIPOS>MOLECULE
*****
 30 32 0 0 0
SMALL
GASTEIGER

@<TRIPOS>ATOM
      1 N          62.5972   87.4619   11.6595 N.pl3   1  UNL1       -0.2872
      2 N          63.7958   83.2599   12.7348 N.3     1  UNL1       -0.2705
      3 C          62.9443   83.5107   11.5258 C.3     1  UNL1        0.0739
      4 C          62.5447   84.9114   11.1673 C.3     1  UNL1        0.0374
      5 C          62.9967   86.0612   12.0179 C.3     1  UNL1        0.0800
      6 C          63.8483   85.8103   13.2270 C.3     1  UNL1        0.0374
      7 C          64.2479   84.4097   13.5854 C.3     1  UNL1        0.0739
      8 C          64.1954   81.8592   13.0933 C.3     1  UNL1        0.1017
      9 C          63.2810   81.0075   13.9230 C.3     1  UNL1        0.1263
     10 O          63.6973   79.6203   14.3137 O.3     1  UNL1       -0.3830
     11 H          62.9967   79.2100   14.8446 H       1  UNL1        0.2104
     12 C          61.8743   82.8401   15.1116 C.3     1  UNL1        0.0025
     13 C          61.9504   81.5429   14.3621 C.3     1  UNL1        0.0283
     14 C          60.6961   80.7813   14.0518 C.3     1  UNL1        0.0025
     15 C          63.2794   88.6269   12.3130 C.ar    1  UNL1        0.0515
     16 C          63.9198   88.4623   13.6595 C.ar    1  UNL1        0.0148
     17 C          64.6020   89.6273   14.3130 C.ar    1  UNL1        0.0051
     18 C          64.6439   90.9570   13.6202 C.ar    1  UNL1        0.0715
     19 C          64.0036   91.1217   12.2738 C.ar    1  UNL1        0.0051
     20 C          63.3213   89.9566   11.6202 C.ar    1  UNL1        0.0148
     21 C          65.3262   92.1221   14.2738 C.3     1  UNL1        0.4186
     22 F          66.0084   93.2872   14.9274 F       1  UNL1       -0.1659
     23 F          65.3092   91.3959   15.5862 F       1  UNL1       -0.1659
     24 F          65.3432   92.8483   12.9615 F       1  UNL1       -0.1659
     25 C          61.5154   87.6975   10.6475 C.ar    1  UNL1        0.0710
     26 C          61.7129   87.2664    9.2244 C.ar    1  UNL1        0.0180
     27 C          60.6310   87.5021    8.2123 C.ar    1  UNL1        0.0220
     28 C          59.3518   88.1687    8.6234 C.ar    1  UNL1        0.0990
     29 N          59.1543   88.5998   10.0465 N.ar    1  UNL1       -0.2410
     30 C          60.2361   88.3641   11.0585 C.ar    1  UNL1        0.1136
@<TRIPOS>BOND
     1    12    13    1
     2    13    14    1
     3    13     9    1
     4     9    10    1
     5     9     8    1
     6     8     2    1
     7     2     3    1
     8     3     4    1
     9     4     5    1
    10     5     1    1
    11     1    15    1
    12    15    16   ar
    13    16    17   ar
    14    17    18   ar
    15    18    21    1
    16    21    22    1
    17    21    23    1
    18    21    24    1
    19    18    19   ar
    20    19    20   ar
    21     1    25    1
    22    25    26   ar
    23    26    27   ar
    24    27    28   ar
    25    28    29   ar
    26    29    30   ar
    27     5     6    1
    28     6     7    1
    29     7     2    1
    30    20    15   ar
    31    30    25   ar
    32    10    11    1
@<TRIPOS>MOLECULE
*****
 30 32 0 0 0
SMALL
GASTEIGER

@<TRIPOS>ATOM
      1 N          58.9969   94.6540   -2.4142 N.pl3   1  UNL1       -0.2872
      2 N          61.1040   93.1555    1.2689 N.3     1  UNL1       -0.2705
      3 C          60.4536   94.5071    1.2745 C.3     1  UNL1        0.0739
      4 C          59.7513   95.0066    0.0469 C.3     1  UNL1        0.0374
      5 C          59.6993   94.1545   -1.1865 C.3     1  UNL1        0.0800
      6 C          60.3497   92.8029   -1.1922 C.3     1  UNL1        0.0374
      7 C          61.0520   92.3034    0.0355 C.3     1  UNL1        0.0739
      8 C          61.8064   92.6560    2.4965 C.3     1  UNL1        0.1017
      9 C          63.3004   92.5235    2.5042 C.3     1  UNL1        0.1263
     10 O          63.9489   91.3874    3.2383 O.3     1  UNL1       -0.3830
     11 H          64.9123   91.4491    3.1436 H       1  UNL1        0.2104
     12 C          64.1208   94.9687    2.1913 C.3     1  UNL1        0.0025
     13 C          64.1461   93.5270    1.7778 C.3     1  UNL1        0.0283
     14 C          65.0172   93.0889    0.6379 C.3     1  UNL1        0.0025
     15 C          57.5276   94.9523   -2.3686 C.ar    1  UNL1        0.0515
     16 C          56.5619   93.8975   -1.9157 C.ar    1  UNL1        0.0148
     17 C          55.0926   94.1958   -1.8701 C.ar    1  UNL1        0.0051
     18 C          54.5889   95.5487   -2.2774 C.ar    1  UNL1        0.0715
     19 C          55.5545   96.6034   -2.7302 C.ar    1  UNL1        0.0051
     20 C          57.0239   96.3052   -2.7758 C.ar    1  UNL1        0.0148
     21 C          53.1195   95.8469   -2.2318 C.3     1  UNL1        0.4186
     22 F          51.6502   96.1451   -2.1861 F       1  UNL1       -0.1659
     23 F          53.0555   95.7606   -3.7279 F       1  UNL1       -0.1659
     24 F          53.1835   95.9332   -0.7357 F       1  UNL1       -0.1659
     25 C          59.7639   94.8553   -3.6874 C.ar    1  UNL1        0.0710
     26 C          59.1966   94.3718   -4.9891 C.ar    1  UNL1        0.0180
     27 C          59.9637   94.5731   -6.2624 C.ar    1  UNL1        0.0220
     28 C          61.2979   95.2579   -6.2340 C.ar    1  UNL1        0.0990
     29 N          61.8651   95.7415   -4.9323 N.ar    1  UNL1       -0.2410
     30 C          61.0982   95.5402   -3.6590 C.ar    1  UNL1        0.1136
@<TRIPOS>BOND
     1    12    13    1
     2    13    14    1
     3    13     9    1
     4     9    10    1
     5     9     8    1
     6     8     2    1
     7     2     3    1
     8     3     4    1
     9     4     5    1
    10     5     1    1
    11     1    15    1
    12    15    16   ar
    13    16    17   ar
    14    17    18   ar
    15    18    21    1
    16    21    22    1
    17    21    23    1
    18    21    24    1
    19    18    19   ar
    20    19    20   ar
    21     1    25    1
    22    25    26   ar
    23    26    27   ar
    24    27    28   ar
    25    28    29   ar
    26    29    30   ar
    27     5     6    1
    28     6     7    1
    29     7     2    1
    30    20    15   ar
    31    30    25   ar
    32    10    11    1
