@<TRIPOS>MOLECULE
*****
 31 34 0 0 0
SMALL
GASTEIGER

@<TRIPOS>ATOM
      1 N          62.5969   86.0174   11.3617 N.pl3   1  UNL1       -0.2567
      2 C          62.8968   87.4758   11.5440 C.ar    1  UNL1        0.1408
      3 N          62.4971   88.2725   10.3376 N.ar    1  UNL1       -0.2290
      4 C          62.7121   89.7568   10.3141 C.ar    1  UNL1        0.0969
      5 C          63.3268   90.4444   11.4971 C.ar    1  UNL1        0.0084
      6 C          63.7265   89.6477   12.7035 C.ar    1  UNL1        0.0055
      7 C          63.5115   88.1634   12.7269 C.ar    1  UNL1        0.0853
      8 C          63.9782   87.5624   14.0197 C.2     1  UNL1        0.2523
      9 O          64.5538   88.5258   15.0149 O.2     1  UNL1       -0.2697
     10 N          63.9454   86.1255   14.4488 N.am    1  UNL1       -0.2784
     11 C          63.4378   84.9346   13.6911 C.ar    1  UNL1        0.0790
     12 C          63.5901   83.6727   14.4876 C.ar    1  UNL1       -0.0032
     13 C          64.1902   83.7208   15.8614 C.3     1  UNL1        0.0325
     14 C          63.1423   82.3626   13.9102 C.ar    1  UNL1        0.0279
     15 C          62.5422   82.3145   12.5363 C.ar    1  UNL1        0.1395
     16 CL         62.0943   81.0046   11.9589 Cl      1  UNL1       -0.0613
     17 N          62.3899   83.5764   11.7398 N.ar    1  UNL1       -0.2177
     18 C          62.8377   84.8864   12.3171 C.ar    1  UNL1        0.1506
     19 H          64.3045   85.9394   15.3464 H       1  UNL1        0.1552
     20 C          62.8382   85.4272    8.8430 C.3     1  UNL1        0.0237
     21 C          61.9739   85.6401   10.0504 C.3     1  UNL1        0.0984
     22 C          63.5418   91.9288   11.4735 C.3     1  UNL1        0.0899
     23 S          64.7743   92.5180   12.0930 S.3     1  UNL1       -0.1087
     24 C          65.7999   93.1902   11.2290 C.ar    1  UNL1        0.0279
     25 C          66.7929   92.3660   10.4644 C.ar    1  UNL1        0.0209
     26 C          67.8185   93.0383    9.6006 C.ar    1  UNL1        0.0595
     27 C          68.8115   92.2141    8.8359 C.3     1  UNL1        0.0521
     28 N          67.8511   94.5346    9.5013 N.ar    1  UNL1       -0.2539
     29 C          66.8581   95.3588   10.2660 C.ar    1  UNL1        0.0595
     30 C          66.8906   96.8551   10.1667 C.3     1  UNL1        0.0521
     31 C          65.8325   94.6865   11.1298 C.ar    1  UNL1        0.0209
@<TRIPOS>BOND
     1    20    21    1
     2    21     1    1
     3     1     2    1
     4     2     3   ar
     5     3     4   ar
     6     4     5   ar
     7     5    22    1
     8    22    23    1
     9    23    24    1
    10    24    25   ar
    11    25    26   ar
    12    26    27    1
    13    26    28   ar
    14    28    29   ar
    15    29    30    1
    16    29    31   ar
    17     5     6   ar
    18     6     7   ar
    19     7     8    1
    20     8     9    2
    21     8    10   am
    22    10    11    1
    23    11    12   ar
    24    12    13    1
    25    12    14   ar
    26    14    15   ar
    27    15    16    1
    28    15    17   ar
    29    17    18   ar
    30    18     1    1
    31     7     2   ar
    32    18    11   ar
    33    31    24   ar
    34    10    19    1
@<TRIPOS>MOLECULE
*****
 31 34 0 0 0
SMALL
GASTEIGER

@<TRIPOS>ATOM
      1 N          62.6433   85.6504   11.0457 N.pl3   1  UNL1       -0.2567
      2 C          62.7880   87.1162   11.3297 C.ar    1  UNL1        0.1408
      3 N          62.3523   87.9468   10.1592 N.ar    1  UNL1       -0.2290
      4 C          62.4172   89.4434   10.2360 C.ar    1  UNL1        0.0969
      5 C          62.9177   90.1093   11.4834 C.ar    1  UNL1        0.0084
      6 C          63.3534   89.2787   12.6540 C.ar    1  UNL1        0.0055
      7 C          63.2885   87.7821   12.5771 C.ar    1  UNL1        0.0853
      8 C          63.7680   87.1467   13.8485 C.2     1  UNL1        0.2523
      9 O          64.2083   88.0950   14.9241 O.2     1  UNL1       -0.2697
     10 N          63.8653   85.6886   14.1866 N.am    1  UNL1       -0.2784
     11 C          63.5072   84.5056   13.3367 C.ar    1  UNL1        0.0790
     12 C          63.7581   83.2155   14.0596 C.ar    1  UNL1       -0.0032
     13 C          64.3019   83.2325   15.4574 C.3     1  UNL1        0.0325
     14 C          63.4651   81.9083   13.3847 C.ar    1  UNL1        0.0279
     15 C          62.9213   81.8913   11.9869 C.ar    1  UNL1        0.1395
     16 CL         62.6283   80.5842   11.3119 Cl      1  UNL1       -0.0613
     17 N          62.6704   83.1814   11.2640 N.ar    1  UNL1       -0.2177
     18 C          62.9633   84.4886   11.9389 C.ar    1  UNL1        0.1506
     19 H          64.2098   85.4805   15.0851 H       1  UNL1        0.1552
     20 C          63.0359   85.2228    8.5133 C.3     1  UNL1        0.0237
     21 C          62.1076   85.3001    9.6891 C.3     1  UNL1        0.0984
     22 C          62.9826   91.6060   11.5602 C.3     1  UNL1        0.0899
     23 S          64.0062   92.3545   10.7590 S.3     1  UNL1       -0.1087
     24 C          65.4548   92.2868   11.1423 C.ar    1  UNL1        0.0279
     25 C          65.8425   92.1023   12.5795 C.ar    1  UNL1        0.0209
     26 C          67.2911   92.0346   12.9628 C.ar    1  UNL1        0.0595
     27 C          67.6788   91.8501   14.4001 C.3     1  UNL1        0.0521
     28 N          68.3520   92.1516   11.9089 N.ar    1  UNL1       -0.2539
     29 C          67.9644   92.3361   10.4717 C.ar    1  UNL1        0.0595
     30 C          69.0253   92.4531    9.4178 C.3     1  UNL1        0.0521
     31 C          66.5158   92.4038   10.0884 C.ar    1  UNL1        0.0209
@<TRIPOS>BOND
     1    20    21    1
     2    21     1    1
     3     1     2    1
     4     2     3   ar
     5     3     4   ar
     6     4     5   ar
     7     5    22    1
     8    22    23    1
     9    23    24    1
    10    24    25   ar
    11    25    26   ar
    12    26    27    1
    13    26    28   ar
    14    28    29   ar
    15    29    30    1
    16    29    31   ar
    17     5     6   ar
    18     6     7   ar
    19     7     8    1
    20     8     9    2
    21     8    10   am
    22    10    11    1
    23    11    12   ar
    24    12    13    1
    25    12    14   ar
    26    14    15   ar
    27    15    16    1
    28    15    17   ar
    29    17    18   ar
    30    18     1    1
    31     7     2   ar
    32    18    11   ar
    33    31    24   ar
    34    10    19    1
@<TRIPOS>MOLECULE
*****
 31 34 0 0 0
SMALL
GASTEIGER

@<TRIPOS>ATOM
      1 N          62.4203   88.9907   11.1009 N.pl3   1  UNL1       -0.2567
      2 C          63.2054   89.5589   12.2459 C.ar    1  UNL1        0.1408
      3 N          63.2501   91.0571   12.1898 N.ar    1  UNL1       -0.2290
      4 C          63.9876   91.8255   13.2460 C.ar    1  UNL1        0.0969
      5 C          64.6804   91.0956   14.3583 C.ar    1  UNL1        0.0084
      6 C          64.6356   89.5974   14.4145 C.ar    1  UNL1        0.0055
      7 C          63.8981   88.8290   13.3583 C.ar    1  UNL1        0.0853
      8 C          63.9769   87.3507   13.6004 C.2     1  UNL1        0.2523
      9 O          64.7528   86.9304   14.8133 O.2     1  UNL1       -0.2697
     10 N          63.3825   86.2372   12.7900 N.am    1  UNL1       -0.2784
     11 C          62.5623   86.3271   11.5372 C.ar    1  UNL1        0.0790
     12 C          62.1637   84.9675   11.0445 C.ar    1  UNL1       -0.0032
     13 C          62.5919   83.7422   11.7962 C.3     1  UNL1        0.0325
     14 C          61.3369   84.8334    9.8002 C.ar    1  UNL1        0.0279
     15 C          60.9087   86.0587    9.0485 C.ar    1  UNL1        0.1395
     16 CL         60.0819   85.9247    7.8042 Cl      1  UNL1       -0.0613
     17 N          61.3073   87.4183    9.5412 N.ar    1  UNL1       -0.2177
     18 C          62.1341   87.5525   10.7855 C.ar    1  UNL1        0.1506
     19 H          63.5531   85.3272   13.1245 H       1  UNL1        0.1552
     20 C          60.4178   90.4317   10.2862 C.3     1  UNL1        0.0237
     21 C          61.8454   89.9935   10.1449 C.3     1  UNL1        0.0984
     22 C          65.4179   91.8641   15.4146 C.3     1  UNL1        0.0899
     23 S          66.6027   92.7046   15.0409 S.3     1  UNL1       -0.1087
     24 C          66.7684   93.1816   13.6284 C.ar    1  UNL1        0.0279
     25 C          67.3997   92.2864   12.6037 C.ar    1  UNL1        0.0209
     26 C          67.5653   92.7634   11.1912 C.ar    1  UNL1        0.0595
     27 C          68.1967   91.8682   10.1664 C.3     1  UNL1        0.0521
     28 N          67.0996   94.1355   10.8035 N.ar    1  UNL1       -0.2539
     29 C          66.4683   95.0307   11.8282 C.ar    1  UNL1        0.0595
     30 C          66.0026   96.4029   11.4405 C.3     1  UNL1        0.0521
     31 C          66.3027   94.5537   13.2407 C.ar    1  UNL1        0.0209
@<TRIPOS>BOND
     1    20    21    1
     2    21     1    1
     3     1     2    1
     4     2     3   ar
     5     3     4   ar
     6     4     5   ar
     7     5    22    1
     8    22    23    1
     9    23    24    1
    10    24    25   ar
    11    25    26   ar
    12    26    27    1
    13    26    28   ar
    14    28    29   ar
    15    29    30    1
    16    29    31   ar
    17     5     6   ar
    18     6     7   ar
    19     7     8    1
    20     8     9    2
    21     8    10   am
    22    10    11    1
    23    11    12   ar
    24    12    13    1
    25    12    14   ar
    26    14    15   ar
    27    15    16    1
    28    15    17   ar
    29    17    18   ar
    30    18     1    1
    31     7     2   ar
    32    18    11   ar
    33    31    24   ar
    34    10    19    1
@<TRIPOS>MOLECULE
*****
 31 34 0 0 0
SMALL
GASTEIGER

@<TRIPOS>ATOM
      1 N          63.8920   86.6883   13.6798 N.pl3   1  UNL1       -0.2567
      2 C          64.0726   88.1774   13.6869 C.ar    1  UNL1        0.1408
      3 N          64.8225   88.6328   14.9034 N.ar    1  UNL1       -0.2290
      4 C          65.1105   90.0910   15.1047 C.ar    1  UNL1        0.0969
      5 C          64.6486   91.0938   14.0894 C.ar    1  UNL1        0.0084
      6 C          63.8986   90.6385   12.8728 C.ar    1  UNL1        0.0055
      7 C          63.6106   89.1802   12.6715 C.ar    1  UNL1        0.0853
      8 C          62.8540   88.9416   11.3985 C.2     1  UNL1        0.2523
      9 O          62.5370   90.1652   10.5908 O.2     1  UNL1       -0.2697
     10 N          62.3725   87.6414   10.8262 N.am    1  UNL1       -0.2784
     11 C          62.5287   86.2584   11.3859 C.ar    1  UNL1        0.0790
     12 C          61.8966   85.2316   10.4936 C.ar    1  UNL1       -0.0032
     13 C          61.2204   85.6558    9.2237 C.3     1  UNL1        0.0325
     14 C          61.9407   83.7806   10.8714 C.ar    1  UNL1        0.0279
     15 C          62.6169   83.3564   12.1413 C.ar    1  UNL1        0.1395
     16 CL         62.6611   81.9055   12.5191 Cl      1  UNL1       -0.0613
     17 N          63.2491   84.3833   13.0335 N.ar    1  UNL1       -0.2177
     18 C          63.2050   85.8342   12.6558 C.ar    1  UNL1        0.1506
     19 H          61.8902   87.7039    9.9702 H       1  UNL1        0.1552
     20 C          63.6415   85.7111   16.0741 C.3     1  UNL1        0.0237
     21 C          64.4758   85.9564   14.8518 C.3     1  UNL1        0.0984
     22 C          64.9366   92.5522   14.2907 C.3     1  UNL1        0.0899
     23 S          66.2787   93.1098   13.9196 S.3     1  UNL1       -0.1087
     24 C          66.5614   93.5018   12.4995 C.ar    1  UNL1        0.0279
     25 C          66.1964   94.8730   12.0132 C.ar    1  UNL1        0.0209
     26 C          66.4791   95.2650   10.5932 C.ar    1  UNL1        0.0595
     27 C          66.1141   96.6362   10.1068 C.3     1  UNL1        0.0521
     28 N          67.1267   94.2857    9.6596 N.ar    1  UNL1       -0.2539
     29 C          67.4917   92.9145   10.1459 C.ar    1  UNL1        0.0595
     30 C          68.1393   91.9353    9.2123 C.3     1  UNL1        0.0521
     31 C          67.2090   92.5226   11.5659 C.ar    1  UNL1        0.0209
@<TRIPOS>BOND
     1    20    21    1
     2    21     1    1
     3     1     2    1
     4     2     3   ar
     5     3     4   ar
     6     4     5   ar
     7     5    22    1
     8    22    23    1
     9    23    24    1
    10    24    25   ar
    11    25    26   ar
    12    26    27    1
    13    26    28   ar
    14    28    29   ar
    15    29    30    1
    16    29    31   ar
    17     5     6   ar
    18     6     7   ar
    19     7     8    1
    20     8     9    2
    21     8    10   am
    22    10    11    1
    23    11    12   ar
    24    12    13    1
    25    12    14   ar
    26    14    15   ar
    27    15    16    1
    28    15    17   ar
    29    17    18   ar
    30    18     1    1
    31     7     2   ar
    32    18    11   ar
    33    31    24   ar
    34    10    19    1
@<TRIPOS>MOLECULE
*****
 31 34 0 0 0
SMALL
GASTEIGER

@<TRIPOS>ATOM
      1 N          61.7922   88.0173   10.8940 N.pl3   1  UNL1       -0.2567
      2 C          61.0528   88.2787    9.6154 C.ar    1  UNL1        0.1408
      3 N          60.6225   89.7121    9.5144 N.ar    1  UNL1       -0.2290
      4 C          59.8657   90.1847    8.3086 C.ar    1  UNL1        0.0969
      5 C          59.5393   89.2240    7.2039 C.ar    1  UNL1        0.0084
      6 C          59.9696   87.7907    7.3048 C.ar    1  UNL1        0.0055
      7 C          60.7264   87.3180    8.5106 C.ar    1  UNL1        0.0853
      8 C          61.0588   85.8586    8.4117 C.2     1  UNL1        0.2523
      9 O          60.5880   85.1669    7.1667 O.2     1  UNL1       -0.2697
     10 N          61.7996   84.9995    9.3930 N.am    1  UNL1       -0.2784
     11 C          62.3911   85.3876   10.7157 C.ar    1  UNL1        0.0790
     12 C          63.0502   84.2184   11.3855 C.ar    1  UNL1       -0.0032
     13 C          63.0534   82.8754   10.7175 C.3     1  UNL1        0.0325
     14 C          63.7060   84.3923   12.7234 C.ar    1  UNL1        0.0279
     15 C          63.7027   85.7353   13.3913 C.ar    1  UNL1        0.1395
     16 CL         64.3584   85.9092   14.7291 Cl      1  UNL1       -0.0613
     17 N          63.0436   86.9045   12.7216 N.ar    1  UNL1       -0.2177
     18 C          62.3878   86.7307   11.3838 C.ar    1  UNL1        0.1506
     19 H          61.9126   84.0562    9.1348 H       1  UNL1        0.1552
     20 C          63.1352   90.1134   11.6374 C.3     1  UNL1        0.0237
     21 C          61.9579   89.1988   11.8032 C.3     1  UNL1        0.0984
     22 C          58.7825   89.6968    5.9981 C.3     1  UNL1        0.0899
     23 S          58.8304   91.1427    5.6019 S.3     1  UNL1       -0.1087
     24 C          59.8145   91.6050    4.5684 C.ar    1  UNL1        0.0279
     25 C          59.4408   92.6999    3.6138 C.ar    1  UNL1        0.0209
     26 C          60.4249   93.1622    2.5804 C.ar    1  UNL1        0.0595
     27 C          60.0512   94.2572    1.6257 C.3     1  UNL1        0.0521
     28 N          61.7826   92.5295    2.5017 N.ar    1  UNL1       -0.2539
     29 C          62.1563   91.4346    3.4564 C.ar    1  UNL1        0.0595
     30 C          63.5141   90.8019    3.3777 C.3     1  UNL1        0.0521
     31 C          61.1722   90.9723    4.4898 C.ar    1  UNL1        0.0209
@<TRIPOS>BOND
     1    20    21    1
     2    21     1    1
     3     1     2    1
     4     2     3   ar
     5     3     4   ar
     6     4     5   ar
     7     5    22    1
     8    22    23    1
     9    23    24    1
    10    24    25   ar
    11    25    26   ar
    12    26    27    1
    13    26    28   ar
    14    28    29   ar
    15    29    30    1
    16    29    31   ar
    17     5     6   ar
    18     6     7   ar
    19     7     8    1
    20     8     9    2
    21     8    10   am
    22    10    11    1
    23    11    12   ar
    24    12    13    1
    25    12    14   ar
    26    14    15   ar
    27    15    16    1
    28    15    17   ar
    29    17    18   ar
    30    18     1    1
    31     7     2   ar
    32    18    11   ar
    33    31    24   ar
    34    10    19    1
@<TRIPOS>MOLECULE
*****
 31 34 0 0 0
SMALL
GASTEIGER

@<TRIPOS>ATOM
      1 N          62.6350   85.3459   10.9527 N.pl3   1  UNL1       -0.2567
      2 C          62.7694   86.8255   11.1591 C.ar    1  UNL1        0.1408
      3 N          62.3461   87.5897    9.9398 N.ar    1  UNL1       -0.2290
      4 C          62.4034   89.0885    9.9366 C.ar    1  UNL1        0.0969
      5 C          62.8840   89.8233   11.1528 C.ar    1  UNL1        0.0084
      6 C          63.3074   89.0591   12.3722 C.ar    1  UNL1        0.0055
      7 C          63.2501   87.5603   12.3753 C.ar    1  UNL1        0.0853
      8 C          63.7150   86.9968   13.6854 C.2     1  UNL1        0.2523
      9 O          64.1365   88.0039   14.7141 O.2     1  UNL1       -0.2697
     10 N          63.8141   85.5595   14.1030 N.am    1  UNL1       -0.2784
     11 C          63.4728   84.3306   13.3134 C.ar    1  UNL1        0.0790
     12 C          63.7194   83.0826   14.1081 C.ar    1  UNL1       -0.0032
     13 C          64.2441   83.1777   15.5101 C.3     1  UNL1        0.0325
     14 C          63.4414   81.7395   13.5008 C.ar    1  UNL1        0.0279
     15 C          62.9166   81.6444   12.0989 C.ar    1  UNL1        0.1395
     16 CL         62.6386   80.3014   11.4915 Cl      1  UNL1       -0.0613
     17 N          62.6700   82.8924   11.3042 N.ar    1  UNL1       -0.2177
     18 C          62.9480   84.2355   11.9114 C.ar    1  UNL1        0.1506
     19 H          64.1472   85.4019   15.0159 H       1  UNL1        0.1552
     20 C          63.0371   84.9086    8.4234 C.3     1  UNL1        0.0237
     21 C          62.1194   84.9203    9.6099 C.3     1  UNL1        0.0984
     22 C          62.9413   91.3222   11.1496 C.3     1  UNL1        0.0899
     23 S          64.2355   92.0239   11.4371 S.3     1  UNL1       -0.1087
     24 C          64.8559   91.9249   12.7992 C.ar    1  UNL1        0.0279
     25 C          64.0219   91.5100   13.9749 C.ar    1  UNL1        0.0209
     26 C          64.6423   91.4111   15.3369 C.ar    1  UNL1        0.0595
     27 C          63.8083   90.9961   16.5127 C.3     1  UNL1        0.0521
     28 N          66.0967   91.7270   15.5233 N.ar    1  UNL1       -0.2539
     29 C          66.9308   92.1420   14.3477 C.ar    1  UNL1        0.0595
     30 C          68.3852   92.4579   14.5341 C.3     1  UNL1        0.0521
     31 C          66.3103   92.2409   12.9856 C.ar    1  UNL1        0.0209
@<TRIPOS>BOND
     1    20    21    1
     2    21     1    1
     3     1     2    1
     4     2     3   ar
     5     3     4   ar
     6     4     5   ar
     7     5    22    1
     8    22    23    1
     9    23    24    1
    10    24    25   ar
    11    25    26   ar
    12    26    27    1
    13    26    28   ar
    14    28    29   ar
    15    29    30    1
    16    29    31   ar
    17     5     6   ar
    18     6     7   ar
    19     7     8    1
    20     8     9    2
    21     8    10   am
    22    10    11    1
    23    11    12   ar
    24    12    13    1
    25    12    14   ar
    26    14    15   ar
    27    15    16    1
    28    15    17   ar
    29    17    18   ar
    30    18     1    1
    31     7     2   ar
    32    18    11   ar
    33    31    24   ar
    34    10    19    1
@<TRIPOS>MOLECULE
*****
 31 34 0 0 0
SMALL
GASTEIGER

@<TRIPOS>ATOM
      1 N          62.4518   86.4992   10.7501 N.pl3   1  UNL1       -0.2567
      2 C          62.7302   87.4529   11.8739 C.ar    1  UNL1        0.1408
      3 N          63.6178   86.8327   12.9119 N.ar    1  UNL1       -0.2290
      4 C          64.0189   87.6207   14.1235 C.ar    1  UNL1        0.0969
      5 C          63.5325   89.0290   14.2971 C.ar    1  UNL1        0.0084
      6 C          62.6449   89.6492   13.2591 C.ar    1  UNL1        0.0055
      7 C          62.2438   88.8612   12.0475 C.ar    1  UNL1        0.0853
      8 C          61.3588   89.6635   11.1402 C.2     1  UNL1        0.2523
      9 O          61.0502   91.0580   11.5985 O.2     1  UNL1       -0.2697
     10 N          60.7416   89.2558    9.8353 N.am    1  UNL1       -0.2784
     11 C          60.8571   87.9449    9.1153 C.ar    1  UNL1        0.0790
     12 C          60.0788   87.9535    7.8331 C.ar    1  UNL1       -0.0032
     13 C          59.3178   89.1803    7.4259 C.3     1  UNL1        0.0325
     14 C          60.0616   86.7354    6.9579 C.ar    1  UNL1        0.0279
     15 C          60.8226   85.5086    7.3650 C.ar    1  UNL1        0.1395
     16 CL         60.8055   84.2905    6.4900 Cl      1  UNL1       -0.0613
     17 N          61.6009   85.5000    8.6473 N.ar    1  UNL1       -0.2177
     18 C          61.6182   86.7180    9.5224 C.ar    1  UNL1        0.1506
     19 H          60.1876   89.9388    9.3929 H       1  UNL1        0.1552
     20 C          62.4725   84.0999   11.7467 C.3     1  UNL1        0.0237
     21 C          63.0916   85.1478   10.8699 C.3     1  UNL1        0.0984
     22 C          63.9336   89.8170   15.5088 C.3     1  UNL1        0.0899
     23 S          64.1426   91.2987   15.4045 S.3     1  UNL1       -0.1087
     24 C          65.3917   91.8373   14.7723 C.ar    1  UNL1        0.0279
     25 C          66.5363   92.2825   15.6335 C.ar    1  UNL1        0.0209
     26 C          67.7853   92.8211   15.0013 C.ar    1  UNL1        0.0595
     27 C          68.9300   93.2663   15.8625 C.3     1  UNL1        0.0521
     28 N          67.8898   92.9145   13.5078 N.ar    1  UNL1       -0.2539
     29 C          66.7452   92.4693   12.6466 C.ar    1  UNL1        0.0595
     30 C          66.8497   92.5627   11.1532 C.3     1  UNL1        0.0521
     31 C          65.4962   91.9307   13.2788 C.ar    1  UNL1        0.0209
@<TRIPOS>BOND
     1    20    21    1
     2    21     1    1
     3     1     2    1
     4     2     3   ar
     5     3     4   ar
     6     4     5   ar
     7     5    22    1
     8    22    23    1
     9    23    24    1
    10    24    25   ar
    11    25    26   ar
    12    26    27    1
    13    26    28   ar
    14    28    29   ar
    15    29    30    1
    16    29    31   ar
    17     5     6   ar
    18     6     7   ar
    19     7     8    1
    20     8     9    2
    21     8    10   am
    22    10    11    1
    23    11    12   ar
    24    12    13    1
    25    12    14   ar
    26    14    15   ar
    27    15    16    1
    28    15    17   ar
    29    17    18   ar
    30    18     1    1
    31     7     2   ar
    32    18    11   ar
    33    31    24   ar
    34    10    19    1
@<TRIPOS>MOLECULE
*****
 31 34 0 0 0
SMALL
GASTEIGER

@<TRIPOS>ATOM
      1 N          62.4503   86.4903   10.7482 N.pl3   1  UNL1       -0.2567
      2 C          62.7322   87.4442   11.8709 C.ar    1  UNL1        0.1408
      3 N          63.6186   86.8224   12.9089 N.ar    1  UNL1       -0.2290
      4 C          64.0227   87.6104   14.1196 C.ar    1  UNL1        0.0969
      5 C          63.5403   89.0202   14.2922 C.ar    1  UNL1        0.0084
      6 C          62.6539   89.6420   13.2542 C.ar    1  UNL1        0.0055
      7 C          62.2498   88.8540   12.0435 C.ar    1  UNL1        0.0853
      8 C          61.3666   89.6580   11.1361 C.2     1  UNL1        0.2523
      9 O          61.0621   91.0538   11.5933 O.2     1  UNL1       -0.2697
     10 N          60.7474   89.2509    9.8319 N.am    1  UNL1       -0.2784
     11 C          60.8587   87.9390    9.1130 C.ar    1  UNL1        0.0790
     12 C          60.0797   87.9487    7.8313 C.ar    1  UNL1       -0.0032
     13 C          59.3219   89.1772    7.4235 C.3     1  UNL1        0.0325
     14 C          60.0585   86.7298    6.9572 C.ar    1  UNL1        0.0279
     15 C          60.8163   85.5013    7.3650 C.ar    1  UNL1        0.1395
     16 CL         60.7951   84.2824    6.4910 Cl      1  UNL1       -0.0613
     17 N          61.5953   85.4916    8.6468 N.ar    1  UNL1       -0.2177
     18 C          61.6166   86.7104    9.5208 C.ar    1  UNL1        0.1506
     19 H          60.1950   89.9350    9.3892 H       1  UNL1        0.1552
     20 C          62.4528   84.0846   11.7295 C.3     1  UNL1        0.0237
     21 C          63.0863   85.1371   10.8688 C.3     1  UNL1        0.0984
     22 C          63.9445   89.8082   15.5030 C.3     1  UNL1        0.0899
     23 S          64.1434   91.2913   15.4005 S.3     1  UNL1       -0.1087
     24 C          65.3922   91.8392   14.7754 C.ar    1  UNL1        0.0279
     25 C          65.5038   91.9351   13.2827 C.ar    1  UNL1        0.0209
     26 C          66.7525   92.4829   12.6577 C.ar    1  UNL1        0.0595
     27 C          66.8642   92.5788   11.1649 C.3     1  UNL1        0.0521
     28 N          67.8895   92.9348   13.5254 N.ar    1  UNL1       -0.2539
     29 C          67.7779   92.8389   15.0181 C.ar    1  UNL1        0.0595
     30 C          68.9149   93.2908   15.8859 C.3     1  UNL1        0.0521
     31 C          66.5292   92.2911   15.6431 C.ar    1  UNL1        0.0209
@<TRIPOS>BOND
     1    20    21    1
     2    21     1    1
     3     1     2    1
     4     2     3   ar
     5     3     4   ar
     6     4     5   ar
     7     5    22    1
     8    22    23    1
     9    23    24    1
    10    24    25   ar
    11    25    26   ar
    12    26    27    1
    13    26    28   ar
    14    28    29   ar
    15    29    30    1
    16    29    31   ar
    17     5     6   ar
    18     6     7   ar
    19     7     8    1
    20     8     9    2
    21     8    10   am
    22    10    11    1
    23    11    12   ar
    24    12    13    1
    25    12    14   ar
    26    14    15   ar
    27    15    16    1
    28    15    17   ar
    29    17    18   ar
    30    18     1    1
    31     7     2   ar
    32    18    11   ar
    33    31    24   ar
    34    10    19    1
@<TRIPOS>MOLECULE
*****
 31 34 0 0 0
SMALL
GASTEIGER

@<TRIPOS>ATOM
      1 N          63.7597   85.3410   13.6769 N.pl3   1  UNL1       -0.2567
      2 C          63.4370   86.6373   12.9945 C.ar    1  UNL1        0.1408
      3 N          63.7469   87.8118   13.8745 N.ar    1  UNL1       -0.2290
      4 C          63.4963   89.2057   13.3805 C.ar    1  UNL1        0.0969
      5 C          62.9358   89.4252   12.0066 C.ar    1  UNL1        0.0084
      6 C          62.6260   88.2506   11.1266 C.ar    1  UNL1        0.0055
      7 C          62.8766   86.8567   11.6206 C.ar    1  UNL1        0.0853
      8 C          62.5004   85.8340   10.5897 C.2     1  UNL1        0.2523
      9 O          61.9616   86.3779    9.2998 O.2     1  UNL1       -0.2697
     10 N          62.5917   84.3394   10.6781 N.am    1  UNL1       -0.2784
     11 C          63.0818   83.4983   11.8193 C.ar    1  UNL1        0.0790
     12 C          63.0058   82.0359   11.4944 C.ar    1  UNL1       -0.0032
     13 C          62.4860   81.5902   10.1599 C.3     1  UNL1        0.0325
     14 C          63.4496   81.0192   12.5041 C.ar    1  UNL1        0.0279
     15 C          63.9694   81.4649   13.8386 C.ar    1  UNL1        0.1395
     16 CL         64.4132   80.4483   14.8483 Cl      1  UNL1       -0.0613
     17 N          64.0454   82.9273   14.1635 N.ar    1  UNL1       -0.2177
     18 C          63.6017   83.9440   13.1539 C.ar    1  UNL1        0.1506
     19 H          62.2901   83.8452    9.8818 H       1  UNL1        0.1552
     20 C          63.3840   85.5876   16.2358 C.3     1  UNL1        0.0237
     21 C          64.3138   85.4571   15.0660 C.3     1  UNL1        0.0984
     22 C          62.6853   90.8192   11.5126 C.3     1  UNL1        0.0899
     23 S          63.6566   91.4673   10.5712 S.3     1  UNL1       -0.1087
     24 C          64.7378   92.3592   11.1057 C.ar    1  UNL1        0.0279
     25 C          65.1162   92.2929   12.5556 C.ar    1  UNL1        0.0209
     26 C          66.1974   93.1848   13.0900 C.ar    1  UNL1        0.0595
     27 C          66.5758   93.1186   14.5400 C.3     1  UNL1        0.0521
     28 N          66.9001   94.1429   12.1745 N.ar    1  UNL1       -0.2539
     29 C          66.5217   94.2092   10.7246 C.ar    1  UNL1        0.0595
     30 C          67.2244   95.1674    9.8091 C.3     1  UNL1        0.0521
     31 C          65.4405   93.3173   10.1902 C.ar    1  UNL1        0.0209
@<TRIPOS>BOND
     1    20    21    1
     2    21     1    1
     3     1     2    1
     4     2     3   ar
     5     3     4   ar
     6     4     5   ar
     7     5    22    1
     8    22    23    1
     9    23    24    1
    10    24    25   ar
    11    25    26   ar
    12    26    27    1
    13    26    28   ar
    14    28    29   ar
    15    29    30    1
    16    29    31   ar
    17     5     6   ar
    18     6     7   ar
    19     7     8    1
    20     8     9    2
    21     8    10   am
    22    10    11    1
    23    11    12   ar
    24    12    13    1
    25    12    14   ar
    26    14    15   ar
    27    15    16    1
    28    15    17   ar
    29    17    18   ar
    30    18     1    1
    31     7     2   ar
    32    18    11   ar
    33    31    24   ar
    34    10    19    1
