@<TRIPOS>MOLECULE
*****
 31 34 0 0 0
SMALL
GASTEIGER

@<TRIPOS>ATOM
      1 C          63.3700   89.4884   12.3492 C.ar    1  UNL1        0.0550
      2 C          63.4634   90.6454   11.3991 C.ar    1  UNL1        0.0061
      3 C          64.2884   91.8456   11.7578 C.ar    1  UNL1        0.0189
      4 C          65.0201   91.8889   13.0665 C.ar    1  UNL1        0.0792
      5 C          64.9267   90.7319   14.0165 C.ar    1  UNL1        0.0989
      6 C          64.1017   89.5317   13.6579 C.ar    1  UNL1        0.0251
      7 N          65.7527   91.0572   15.2257 N.ar    1  UNL1       -0.2239
      8 C          66.3565   92.4153   15.0229 C.ar    1  UNL1        0.1788
      9 N          65.9038   92.9293   13.6884 N.ar    1  UNL1       -0.3031
     10 N          63.1707   86.9249   11.9764 N.am    1  UNL1       -0.2987
     11 C          62.5449   88.2881   11.9905 C.2     1  UNL1        0.2461
     12 O          61.0942   88.4510   11.6460 O.2     1  UNL1       -0.2701
     13 H          64.1228   86.8180   12.2025 H       1  UNL1        0.1500
     14 C          62.3456   85.7246   11.6178 C.3     1  UNL1        0.0943
     15 C          62.4925   84.4528   12.3994 C.ar    1  UNL1       -0.0045
     16 C          62.6586   83.1463   11.6816 C.ar    1  UNL1       -0.0027
     17 C          62.8055   81.8745   12.4632 C.ar    1  UNL1       -0.0003
     18 C          62.7865   81.9092   13.9626 C.ar    1  UNL1       -0.0000
     19 C          62.6204   83.2158   14.6805 C.ar    1  UNL1       -0.0003
     20 C          62.4735   84.4876   13.8989 C.ar    1  UNL1       -0.0027
     21 C          61.8699   86.0404    9.0833 C.3     1  UNL1        0.0021
     22 C          61.3736   85.7961   10.4776 C.3     1  UNL1        0.0241
     23 C          66.2703   94.2515   13.0823 C.3     1  UNL1        0.1556
     24 C          66.6143   94.3389   11.6250 C.ar    1  UNL1        0.1093
     25 N          67.3669   93.2226   10.9637 N.ar    1  UNL1       -0.2416
     26 C          67.7109   93.3100    9.5063 C.ar    1  UNL1        0.1282
     27 C          67.3023   94.5138    8.7101 C.ar    1  UNL1        0.1614
     28 F          67.6463   94.6011    7.2527 F       1  UNL1       -0.2025
     29 C          66.5496   95.6302    9.3714 C.ar    1  UNL1        0.0621
     30 C          66.2056   95.5428   10.8288 C.ar    1  UNL1        0.1577
     31 F          65.4530   96.6592   11.4900 F       1  UNL1       -0.2028
@<TRIPOS>BOND
     1    21    22    1
     2    14    22    1
     3    14    10    1
     4    10    11   am
     5    11    12    2
     6    11     1    1
     7     1     2   ar
     8     2     3   ar
     9     3     4   ar
    10     4     5   ar
    11     5     6   ar
    12     5     7   ar
    13     7     8   ar
    14     8     9   ar
    15     9    23    1
    16    23    24    1
    17    24    25   ar
    18    25    26   ar
    19    26    27   ar
    20    27    28    1
    21    27    29   ar
    22    29    30   ar
    23    30    31    1
    24    14    15    1
    25    15    16   ar
    26    16    17   ar
    27    17    18   ar
    28    18    19   ar
    29    19    20   ar
    30     6     1   ar
    31    30    24   ar
    32    20    15   ar
    33     9     4   ar
    34    10    13    1
@<TRIPOS>MOLECULE
*****
 31 34 0 0 0
SMALL
GASTEIGER

@<TRIPOS>ATOM
      1 C          63.3687   89.6683   12.2075 C.ar    1  UNL1        0.0550
      2 C          63.5175   90.8205   11.2586 C.ar    1  UNL1        0.0061
      3 C          64.3498   92.0072   11.6446 C.ar    1  UNL1        0.0189
      4 C          65.0333   92.0417   12.9793 C.ar    1  UNL1        0.0792
      5 C          64.8846   90.8895   13.9282 C.ar    1  UNL1        0.0989
      6 C          64.0523   89.7028   13.5422 C.ar    1  UNL1        0.0251
      7 N          65.6710   91.2041   15.1661 N.ar    1  UNL1       -0.2239
      8 C          66.3058   92.5507   14.9825 C.ar    1  UNL1        0.1788
      9 N          65.9117   93.0684   13.6309 N.ar    1  UNL1       -0.3031
     10 N          63.1978   87.1742   11.5001 N.am    1  UNL1       -0.2987
     11 C          62.5364   88.4816   11.8216 C.2     1  UNL1        0.2461
     12 O          61.0426   88.6022   11.7571 O.2     1  UNL1       -0.2701
     13 H          64.1782   87.0950   11.5424 H       1  UNL1        0.1500
     14 C          62.3654   85.9874   11.1142 C.3     1  UNL1        0.0943
     15 C          61.9787   85.7770    9.6803 C.ar    1  UNL1       -0.0045
     16 C          60.6331   86.2263    9.1928 C.ar    1  UNL1       -0.0027
     17 C          60.2464   86.0159    7.7588 C.ar    1  UNL1       -0.0003
     18 C          61.2051   85.3562    6.8125 C.ar    1  UNL1       -0.0000
     19 C          62.5507   84.9070    7.3000 C.ar    1  UNL1       -0.0003
     20 C          62.9375   85.1174    8.7339 C.ar    1  UNL1       -0.0027
     21 C          62.7541   83.8014   12.4632 C.3     1  UNL1        0.0021
     22 C          61.9199   85.0112   12.1622 C.3     1  UNL1        0.0241
     23 C          66.3236   94.3821   13.0355 C.3     1  UNL1        0.1556
     24 C          66.6160   94.4814   11.5676 C.ar    1  UNL1        0.1093
     25 N          67.3699   93.3839   10.8770 N.ar    1  UNL1       -0.2416
     26 C          67.6623   93.4832    9.4092 C.ar    1  UNL1        0.1282
     27 C          67.2007   94.6802    8.6318 C.ar    1  UNL1        0.1614
     28 F          67.4931   94.7795    7.1640 F       1  UNL1       -0.2025
     29 C          66.4468   95.7778    9.3225 C.ar    1  UNL1        0.0621
     30 C          66.1544   95.6784   10.7903 C.ar    1  UNL1        0.1577
     31 F          65.4005   96.7760   11.4808 F       1  UNL1       -0.2028
@<TRIPOS>BOND
     1    21    22    1
     2    14    22    1
     3    14    10    1
     4    10    11   am
     5    11    12    2
     6    11     1    1
     7     1     2   ar
     8     2     3   ar
     9     3     4   ar
    10     4     5   ar
    11     5     6   ar
    12     5     7   ar
    13     7     8   ar
    14     8     9   ar
    15     9    23    1
    16    23    24    1
    17    24    25   ar
    18    25    26   ar
    19    26    27   ar
    20    27    28    1
    21    27    29   ar
    22    29    30   ar
    23    30    31    1
    24    14    15    1
    25    15    16   ar
    26    16    17   ar
    27    17    18   ar
    28    18    19   ar
    29    19    20   ar
    30     6     1   ar
    31    30    24   ar
    32    20    15   ar
    33     9     4   ar
    34    10    13    1
@<TRIPOS>MOLECULE
*****
 31 34 0 0 0
SMALL
GASTEIGER

@<TRIPOS>ATOM
      1 C          63.5655   90.8150   11.5312 C.ar    1  UNL1        0.0550
      2 C          63.8779   91.8120   10.4550 C.ar    1  UNL1        0.0061
      3 C          64.7889   92.9679   10.7450 C.ar    1  UNL1        0.0189
      4 C          65.3875   93.1266   12.1112 C.ar    1  UNL1        0.0792
      5 C          65.0751   92.1296   13.1874 C.ar    1  UNL1        0.0989
      6 C          64.1641   90.9738   12.8974 C.ar    1  UNL1        0.0251
      7 N          65.8075   92.5434   14.4293 N.ar    1  UNL1       -0.2239
      8 C          66.5725   93.7962   14.1207 C.ar    1  UNL1        0.1788
      9 N          66.3130   94.1567   12.6880 N.ar    1  UNL1       -0.3031
     10 N          62.6724   89.0110    9.8887 N.am    1  UNL1       -0.2987
     11 C          62.6545   89.6591   11.2413 C.2     1  UNL1        0.2461
     12 O          61.7256   89.1514   12.3040 O.2     1  UNL1       -0.2701
     13 H          63.2820   89.3442    9.1912 H       1  UNL1        0.1500
     14 C          61.7613   87.8551    9.5987 C.3     1  UNL1        0.0943
     15 C          62.2432   86.4499    9.8067 C.ar    1  UNL1       -0.0045
     16 C          62.8967   85.7066    8.6797 C.ar    1  UNL1       -0.0027
     17 C          63.3786   84.3014    8.8877 C.ar    1  UNL1       -0.0003
     18 C          63.2068   83.6395   10.2227 C.ar    1  UNL1       -0.0000
     19 C          62.5532   84.3828   11.3498 C.ar    1  UNL1       -0.0003
     20 C          62.0714   85.7880   11.1418 C.ar    1  UNL1       -0.0027
     21 C          59.6414   87.0355    8.3402 C.3     1  UNL1        0.0021
     22 C          60.3686   88.1044    9.1008 C.3     1  UNL1        0.0241
     23 C          66.8794   95.3395   11.9599 C.3     1  UNL1        0.1556
     24 C          66.4010   95.6682   10.5768 C.ar    1  UNL1        0.1093
     25 N          65.1859   96.5271   10.3878 N.ar    1  UNL1       -0.2416
     26 C          64.7075   96.8558    9.0046 C.ar    1  UNL1        0.1282
     27 C          65.4443   96.3258    7.8104 C.ar    1  UNL1        0.1614
     28 F          64.9659   96.6546    6.4273 F       1  UNL1       -0.2025
     29 C          66.6595   95.4669    7.9994 C.ar    1  UNL1        0.0621
     30 C          67.1379   95.1381    9.3826 C.ar    1  UNL1        0.1577
     31 F          68.3531   94.2793    9.5715 F       1  UNL1       -0.2028
@<TRIPOS>BOND
     1    21    22    1
     2    14    22    1
     3    14    10    1
     4    10    11   am
     5    11    12    2
     6    11     1    1
     7     1     2   ar
     8     2     3   ar
     9     3     4   ar
    10     4     5   ar
    11     5     6   ar
    12     5     7   ar
    13     7     8   ar
    14     8     9   ar
    15     9    23    1
    16    23    24    1
    17    24    25   ar
    18    25    26   ar
    19    26    27   ar
    20    27    28    1
    21    27    29   ar
    22    29    30   ar
    23    30    31    1
    24    14    15    1
    25    15    16   ar
    26    16    17   ar
    27    17    18   ar
    28    18    19   ar
    29    19    20   ar
    30     6     1   ar
    31    30    24   ar
    32    20    15   ar
    33     9     4   ar
    34    10    13    1
@<TRIPOS>MOLECULE
*****
 31 34 0 0 0
SMALL
GASTEIGER

@<TRIPOS>ATOM
      1 C          64.2940   89.6203   13.6375 C.ar    1  UNL1        0.0550
      2 C          64.7010   88.5852   14.6439 C.ar    1  UNL1        0.0061
      3 C          64.2547   87.1627   14.4791 C.ar    1  UNL1        0.0189
      4 C          63.4013   86.7753   13.3079 C.ar    1  UNL1        0.0792
      5 C          62.9943   87.8104   12.3016 C.ar    1  UNL1        0.0989
      6 C          63.4406   89.2329   12.4664 C.ar    1  UNL1        0.0251
      7 N          62.1549   87.1364   11.2570 N.ar    1  UNL1       -0.2239
      8 C          62.0431   85.6847   11.6178 C.ar    1  UNL1        0.1788
      9 N          62.8134   85.4615   12.8854 N.ar    1  UNL1       -0.3031
     10 N          65.8021   91.6046   12.9040 N.am    1  UNL1       -0.2987
     11 C          64.7403   91.0429   13.8023 C.2     1  UNL1        0.2461
     12 O          64.1248   91.9037   14.8654 O.2     1  UNL1       -0.2701
     13 H          66.2061   91.0396   12.2062 H       1  UNL1        0.1500
     14 C          66.2484   93.0272   13.0688 C.3     1  UNL1        0.0943
     15 C          66.4326   93.8999   11.8627 C.ar    1  UNL1       -0.0045
     16 C          66.2123   95.3799   11.9672 C.ar    1  UNL1       -0.0027
     17 C          66.3965   96.2526   10.7612 C.ar    1  UNL1       -0.0003
     18 C          66.8011   95.6453    9.4507 C.ar    1  UNL1       -0.0000
     19 C          67.0214   94.1652    9.3462 C.ar    1  UNL1       -0.0003
     20 C          66.8372   93.2925   10.5522 C.ar    1  UNL1       -0.0027
     21 C          67.5600   92.9522   15.3101 C.3     1  UNL1        0.0021
     22 C          66.5105   93.5771   14.4395 C.3     1  UNL1        0.0241
     23 C          62.9687   84.1541   13.6042 C.3     1  UNL1        0.1556
     24 C          62.9372   82.8669   12.8348 C.ar    1  UNL1        0.1093
     25 N          63.4883   82.8126   11.4408 N.ar    1  UNL1       -0.2416
     26 C          63.4568   81.5254   10.6714 C.ar    1  UNL1        0.1282
     27 C          62.8742   80.2923   11.2960 C.ar    1  UNL1        0.1614
     28 F          62.8427   79.0050   10.5266 F       1  UNL1       -0.2025
     29 C          62.3231   80.3466   12.6901 C.ar    1  UNL1        0.0621
     30 C          62.3546   81.6338   13.4595 C.ar    1  UNL1        0.1577
     31 F          61.8035   81.6880   14.8536 F       1  UNL1       -0.2028
@<TRIPOS>BOND
     1    21    22    1
     2    14    22    1
     3    14    10    1
     4    10    11   am
     5    11    12    2
     6    11     1    1
     7     1     2   ar
     8     2     3   ar
     9     3     4   ar
    10     4     5   ar
    11     5     6   ar
    12     5     7   ar
    13     7     8   ar
    14     8     9   ar
    15     9    23    1
    16    23    24    1
    17    24    25   ar
    18    25    26   ar
    19    26    27   ar
    20    27    28    1
    21    27    29   ar
    22    29    30   ar
    23    30    31    1
    24    14    15    1
    25    15    16   ar
    26    16    17   ar
    27    17    18   ar
    28    18    19   ar
    29    19    20   ar
    30     6     1   ar
    31    30    24   ar
    32    20    15   ar
    33     9     4   ar
    34    10    13    1
@<TRIPOS>MOLECULE
*****
 31 34 0 0 0
SMALL
GASTEIGER

@<TRIPOS>ATOM
      1 C          64.1604   89.1648   15.2851 C.ar    1  UNL1        0.0550
      2 C          64.6038   88.1730   14.2508 C.ar    1  UNL1        0.0061
      3 C          64.2043   86.7324   14.3734 C.ar    1  UNL1        0.0189
      4 C          63.3615   86.2836   15.5302 C.ar    1  UNL1        0.0792
      5 C          62.9181   87.2754   16.5644 C.ar    1  UNL1        0.0989
      6 C          63.3176   88.7160   16.4419 C.ar    1  UNL1        0.0251
      7 N          62.0990   86.5444   17.5865 N.ar    1  UNL1       -0.2239
      8 C          62.0360   85.1008   17.1839 C.ar    1  UNL1        0.1788
      9 N          62.8163   84.9396   15.9130 N.ar    1  UNL1       -0.3031
     10 N          65.8573   90.9706   14.5042 N.am    1  UNL1       -0.2987
     11 C          64.5599   90.6055   15.1626 C.2     1  UNL1        0.2461
     12 O          63.6620   91.6809   15.6984 O.2     1  UNL1       -0.2701
     13 H          66.4467   90.2648   14.1526 H       1  UNL1        0.1500
     14 C          66.2568   92.4113   14.3817 C.3     1  UNL1        0.0943
     15 C          66.0744   93.1320   13.0789 C.ar    1  UNL1       -0.0045
     16 C          66.4492   94.5798   12.9638 C.ar    1  UNL1       -0.0027
     17 C          66.2667   95.3005   11.6610 C.ar    1  UNL1       -0.0003
     18 C          65.7095   94.5733   10.4732 C.ar    1  UNL1       -0.0000
     19 C          65.3347   93.1254   10.5883 C.ar    1  UNL1       -0.0003
     20 C          65.5172   92.4048   11.8911 C.ar    1  UNL1       -0.0027
     21 C          68.2990   92.9968   15.8772 C.3     1  UNL1        0.0021
     22 C          66.8387   93.1312   15.5620 C.3     1  UNL1        0.0241
     23 C          63.0163   83.6592   15.1576 C.3     1  UNL1        0.1556
     24 C          63.1479   83.6826   13.6636 C.ar    1  UNL1        0.1093
     25 N          62.4801   84.7653   12.8687 N.ar    1  UNL1       -0.2416
     26 C          62.6117   84.7888   11.3747 C.ar    1  UNL1        0.1282
     27 C          63.4110   83.7294   10.6754 C.ar    1  UNL1        0.1614
     28 F          63.5425   83.7528    9.1814 F       1  UNL1       -0.2025
     29 C          64.0787   82.6466   11.4704 C.ar    1  UNL1        0.0621
     30 C          63.9472   82.6232   12.9644 C.ar    1  UNL1        0.1577
     31 F          64.6149   81.5405   13.7592 F       1  UNL1       -0.2028
@<TRIPOS>BOND
     1    21    22    1
     2    14    22    1
     3    14    10    1
     4    10    11   am
     5    11    12    2
     6    11     1    1
     7     1     2   ar
     8     2     3   ar
     9     3     4   ar
    10     4     5   ar
    11     5     6   ar
    12     5     7   ar
    13     7     8   ar
    14     8     9   ar
    15     9    23    1
    16    23    24    1
    17    24    25   ar
    18    25    26   ar
    19    26    27   ar
    20    27    28    1
    21    27    29   ar
    22    29    30   ar
    23    30    31    1
    24    14    15    1
    25    15    16   ar
    26    16    17   ar
    27    17    18   ar
    28    18    19   ar
    29    19    20   ar
    30     6     1   ar
    31    30    24   ar
    32    20    15   ar
    33     9     4   ar
    34    10    13    1
@<TRIPOS>MOLECULE
*****
 31 34 0 0 0
SMALL
GASTEIGER

@<TRIPOS>ATOM
      1 C          63.5045   90.5473   11.8458 C.ar    1  UNL1        0.0550
      2 C          63.5722   89.1241   12.3147 C.ar    1  UNL1        0.0061
      3 C          62.7330   88.0743   11.6486 C.ar    1  UNL1        0.0189
      4 C          61.8262   88.4477   10.5136 C.ar    1  UNL1        0.0792
      5 C          61.7586   89.8709   10.0447 C.ar    1  UNL1        0.0989
      6 C          62.5977   90.9207   10.7108 C.ar    1  UNL1        0.0251
      7 N          60.7790   89.9392    8.9108 N.ar    1  UNL1       -0.2239
      8 C          60.2412   88.5583    8.6789 C.ar    1  UNL1        0.1788
      9 N          60.8884   87.6364    9.6695 N.ar    1  UNL1       -0.3031
     10 N          65.3094   92.4106   11.7022 N.am    1  UNL1       -0.2987
     11 C          64.3437   91.5971   12.5119 C.2     1  UNL1        0.2461
     12 O          64.2171   91.8335   13.9878 O.2     1  UNL1       -0.2701
     13 H          65.3925   92.2554   10.7336 H       1  UNL1        0.1500
     14 C          66.1486   93.4605   12.3683 C.3     1  UNL1        0.0943
     15 C          66.9932   93.1037   13.5555 C.ar    1  UNL1       -0.0045
     16 C          67.9753   91.9736   13.4647 C.ar    1  UNL1       -0.0027
     17 C          68.8199   91.6168   14.6519 C.ar    1  UNL1       -0.0003
     18 C          68.6824   92.3901   15.9298 C.ar    1  UNL1       -0.0000
     19 C          67.7003   93.5203   16.0205 C.ar    1  UNL1       -0.0003
     20 C          66.8557   93.8771   14.8334 C.ar    1  UNL1       -0.0027
     21 C          66.6278   95.1536   10.4570 C.3     1  UNL1        0.0021
     22 C          66.1431   94.8670   11.8473 C.3     1  UNL1        0.0241
     23 C          60.6413   86.1622    9.7941 C.3     1  UNL1        0.1556
     24 C          61.7513   85.2493   10.2236 C.ar    1  UNL1        0.1093
     25 N          61.8429   84.8002   11.6518 N.ar    1  UNL1       -0.2416
     26 C          62.9530   83.8873   12.0813 C.ar    1  UNL1        0.1282
     27 C          63.9715   83.4236   11.0826 C.ar    1  UNL1        0.1614
     28 F          65.0816   82.5108   11.5121 F       1  UNL1       -0.2025
     29 C          63.8799   83.8728    9.6543 C.ar    1  UNL1        0.0621
     30 C          62.7699   84.7856    9.2248 C.ar    1  UNL1        0.1577
     31 F          62.6784   85.2348    7.7966 F       1  UNL1       -0.2028
@<TRIPOS>BOND
     1    21    22    1
     2    14    22    1
     3    14    10    1
     4    10    11   am
     5    11    12    2
     6    11     1    1
     7     1     2   ar
     8     2     3   ar
     9     3     4   ar
    10     4     5   ar
    11     5     6   ar
    12     5     7   ar
    13     7     8   ar
    14     8     9   ar
    15     9    23    1
    16    23    24    1
    17    24    25   ar
    18    25    26   ar
    19    26    27   ar
    20    27    28    1
    21    27    29   ar
    22    29    30   ar
    23    30    31    1
    24    14    15    1
    25    15    16   ar
    26    16    17   ar
    27    17    18   ar
    28    18    19   ar
    29    19    20   ar
    30     6     1   ar
    31    30    24   ar
    32    20    15   ar
    33     9     4   ar
    34    10    13    1
@<TRIPOS>MOLECULE
*****
 31 34 0 0 0
SMALL
GASTEIGER

@<TRIPOS>ATOM
      1 C          63.4277   90.6713   11.8507 C.ar    1  UNL1        0.0550
      2 C          63.9071   91.5000   10.6960 C.ar    1  UNL1        0.0061
      3 C          64.9078   92.5942   10.9226 C.ar    1  UNL1        0.0189
      4 C          65.4290   92.8597   12.3038 C.ar    1  UNL1        0.0792
      5 C          64.9496   92.0310   13.4585 C.ar    1  UNL1        0.0989
      6 C          63.9490   90.9368   13.2320 C.ar    1  UNL1        0.0251
      7 N          65.6371   92.5215   14.6981 N.ar    1  UNL1       -0.2239
      8 C          66.5415   93.6534   14.3095 C.ar    1  UNL1        0.1788
      9 N          66.4129   93.8624   12.8298 N.ar    1  UNL1       -0.3031
     10 N          62.7835   88.4009   10.7643 N.am    1  UNL1       -0.2987
     11 C          62.4270   89.5770   11.6242 C.2     1  UNL1        0.2461
     12 O          61.0698   89.6590   12.2577 O.2     1  UNL1       -0.2701
     13 H          63.6743   88.3471   10.3485 H       1  UNL1        0.1500
     14 C          61.7828   87.3066   10.5378 C.3     1  UNL1        0.0943
     15 C          60.8414   87.3806    9.3723 C.ar    1  UNL1       -0.0045
     16 C          60.3878   86.1223    8.6935 C.ar    1  UNL1       -0.0027
     17 C          59.4465   86.1963    7.5280 C.ar    1  UNL1       -0.0003
     18 C          58.9587   87.5287    7.0413 C.ar    1  UNL1       -0.0000
     19 C          59.4123   88.7871    7.7201 C.ar    1  UNL1       -0.0003
     20 C          60.3537   88.7131    8.8856 C.ar    1  UNL1       -0.0027
     21 C          62.6743   84.9907   11.3070 C.3     1  UNL1        0.0021
     22 C          61.7235   86.1384   11.4767 C.3     1  UNL1        0.0241
     23 C          67.1404   94.8932   12.0184 C.3     1  UNL1        0.1556
     24 C          66.5580   95.3761   10.7232 C.ar    1  UNL1        0.1093
     25 N          65.2859   96.1710   10.7229 N.ar    1  UNL1       -0.2416
     26 C          64.7035   96.6538    9.4277 C.ar    1  UNL1        0.1282
     27 C          65.3932   96.3418    8.1326 C.ar    1  UNL1        0.1614
     28 F          64.8108   96.8247    6.8374 F       1  UNL1       -0.2025
     29 C          66.6653   95.5469    8.1330 C.ar    1  UNL1        0.0621
     30 C          67.2477   95.0640    9.4282 C.ar    1  UNL1        0.1577
     31 F          68.5197   94.2691    9.4284 F       1  UNL1       -0.2028
@<TRIPOS>BOND
     1    21    22    1
     2    14    22    1
     3    14    10    1
     4    10    11   am
     5    11    12    2
     6    11     1    1
     7     1     2   ar
     8     2     3   ar
     9     3     4   ar
    10     4     5   ar
    11     5     6   ar
    12     5     7   ar
    13     7     8   ar
    14     8     9   ar
    15     9    23    1
    16    23    24    1
    17    24    25   ar
    18    25    26   ar
    19    26    27   ar
    20    27    28    1
    21    27    29   ar
    22    29    30   ar
    23    30    31    1
    24    14    15    1
    25    15    16   ar
    26    16    17   ar
    27    17    18   ar
    28    18    19   ar
    29    19    20   ar
    30     6     1   ar
    31    30    24   ar
    32    20    15   ar
    33     9     4   ar
    34    10    13    1
@<TRIPOS>MOLECULE
*****
 31 34 0 0 0
SMALL
GASTEIGER

@<TRIPOS>ATOM
      1 C          64.3770   89.5222   13.8297 C.ar    1  UNL1        0.0550
      2 C          63.5681   89.0774   12.6475 C.ar    1  UNL1        0.0061
      3 C          63.1357   87.6458   12.5305 C.ar    1  UNL1        0.0189
      4 C          63.5123   86.6592   13.5957 C.ar    1  UNL1        0.0792
      5 C          64.3212   87.1040   14.7779 C.ar    1  UNL1        0.0989
      6 C          64.7536   88.5356   14.8949 C.ar    1  UNL1        0.0251
      7 N          64.5406   85.9137   15.6639 N.ar    1  UNL1       -0.2239
      8 C          63.8672   84.7331   15.0292 C.ar    1  UNL1        0.1788
      9 N          63.2317   85.1938   13.7510 N.ar    1  UNL1       -0.3031
     10 N          65.8323   91.5082   13.0000 N.am    1  UNL1       -0.2987
     11 C          64.8094   90.9538   13.9468 C.2     1  UNL1        0.2461
     12 O          64.2189   91.8310   15.0106 O.2     1  UNL1       -0.2701
     13 H          66.2198   90.9324   12.3018 H       1  UNL1        0.1500
     14 C          66.2647   92.9398   13.1170 C.3     1  UNL1        0.0943
     15 C          66.4626   93.7668   11.8814 C.ar    1  UNL1       -0.0045
     16 C          66.9188   93.1168   10.6089 C.ar    1  UNL1       -0.0027
     17 C          67.1168   93.9438    9.3733 C.ar    1  UNL1       -0.0003
     18 C          66.8586   95.4210    9.4102 C.ar    1  UNL1       -0.0000
     19 C          66.4024   96.0711   10.6827 C.ar    1  UNL1       -0.0003
     20 C          66.2044   95.2440   11.9183 C.ar    1  UNL1       -0.0027
     21 C          67.6366   93.0615   15.3199 C.3     1  UNL1        0.0021
     22 C          66.4990   93.5442   14.4697 C.3     1  UNL1        0.0241
     23 C          62.4524   84.3393   12.7958 C.3     1  UNL1        0.1556
     24 C          62.5816   84.5576   11.3174 C.ar    1  UNL1        0.1093
     25 N          61.6482   85.4975   10.6136 N.ar    1  UNL1       -0.2416
     26 C          61.7774   85.7159    9.1353 C.ar    1  UNL1        0.1282
     27 C          62.8400   84.9942    8.3605 C.ar    1  UNL1        0.1614
     28 F          62.9691   85.2125    6.8822 F       1  UNL1       -0.2025
     29 C          63.7733   84.0542    9.0644 C.ar    1  UNL1        0.0621
     30 C          63.6442   83.8358   10.5427 C.ar    1  UNL1        0.1577
     31 F          64.5776   82.8959   11.2464 F       1  UNL1       -0.2028
@<TRIPOS>BOND
     1    21    22    1
     2    14    22    1
     3    14    10    1
     4    10    11   am
     5    11    12    2
     6    11     1    1
     7     1     2   ar
     8     2     3   ar
     9     3     4   ar
    10     4     5   ar
    11     5     6   ar
    12     5     7   ar
    13     7     8   ar
    14     8     9   ar
    15     9    23    1
    16    23    24    1
    17    24    25   ar
    18    25    26   ar
    19    26    27   ar
    20    27    28    1
    21    27    29   ar
    22    29    30   ar
    23    30    31    1
    24    14    15    1
    25    15    16   ar
    26    16    17   ar
    27    17    18   ar
    28    18    19   ar
    29    19    20   ar
    30     6     1   ar
    31    30    24   ar
    32    20    15   ar
    33     9     4   ar
    34    10    13    1
@<TRIPOS>MOLECULE
*****
 31 34 0 0 0
SMALL
GASTEIGER

@<TRIPOS>ATOM
      1 C          63.2124   88.2094   12.4483 C.ar    1  UNL1        0.0550
      2 C          64.0273   88.8654   13.5231 C.ar    1  UNL1        0.0061
      3 C          64.5459   90.2590   13.3260 C.ar    1  UNL1        0.0189
      4 C          64.2495   90.9966   12.0539 C.ar    1  UNL1        0.0792
      5 C          63.4345   90.3406   10.9790 C.ar    1  UNL1        0.0989
      6 C          62.9160   88.9470   11.1762 C.ar    1  UNL1        0.0251
      7 N          63.3047   91.3081    9.8402 N.ar    1  UNL1       -0.2239
      8 C          64.0395   92.5621   10.2112 C.ar    1  UNL1        0.1788
      9 N          64.6234   92.3696   11.5793 N.ar    1  UNL1       -0.3031
     10 N          63.4327   85.8591   13.5335 N.am    1  UNL1       -0.2987
     11 C          62.6937   86.8157   12.6454 C.2     1  UNL1        0.2461
     12 O          61.4361   86.3788   11.9544 O.2     1  UNL1       -0.2701
     13 H          64.2581   86.1459   13.9870 H       1  UNL1        0.1500
     14 C          62.9140   84.4655   13.7306 C.3     1  UNL1        0.0943
     15 C          63.1017   83.4363   12.6556 C.ar    1  UNL1       -0.0045
     16 C          63.8499   83.7872   11.4038 C.ar    1  UNL1       -0.0027
     17 C          64.0376   82.7581   10.3288 C.ar    1  UNL1       -0.0003
     18 C          63.4771   81.3780   10.5056 C.ar    1  UNL1       -0.0000
     19 C          62.7289   81.0271   11.7575 C.ar    1  UNL1       -0.0003
     20 C          62.5412   82.0562   12.8325 C.ar    1  UNL1       -0.0027
     21 C          62.4867   84.8676   16.2615 C.3     1  UNL1        0.0021
     22 C          62.2078   84.1010   15.0027 C.3     1  UNL1        0.0241
     23 C          65.4382   93.3737   12.3395 C.3     1  UNL1        0.1556
     24 C          66.2821   92.9321   13.4983 C.ar    1  UNL1        0.1093
     25 N          65.8320   93.2081   14.9022 N.ar    1  UNL1       -0.2416
     26 C          66.6759   92.7664   16.0610 C.ar    1  UNL1        0.1282
     27 C          67.9701   92.0487   15.8157 C.ar    1  UNL1        0.1614
     28 F          68.8140   91.6070   16.9745 F       1  UNL1       -0.2025
     29 C          68.4202   91.7727   14.4117 C.ar    1  UNL1        0.0621
     30 C          67.5763   92.2143   13.2529 C.ar    1  UNL1        0.1577
     31 F          68.0265   91.9383   11.8490 F       1  UNL1       -0.2028
@<TRIPOS>BOND
     1    21    22    1
     2    14    22    1
     3    14    10    1
     4    10    11   am
     5    11    12    2
     6    11     1    1
     7     1     2   ar
     8     2     3   ar
     9     3     4   ar
    10     4     5   ar
    11     5     6   ar
    12     5     7   ar
    13     7     8   ar
    14     8     9   ar
    15     9    23    1
    16    23    24    1
    17    24    25   ar
    18    25    26   ar
    19    26    27   ar
    20    27    28    1
    21    27    29   ar
    22    29    30   ar
    23    30    31    1
    24    14    15    1
    25    15    16   ar
    26    16    17   ar
    27    17    18   ar
    28    18    19   ar
    29    19    20   ar
    30     6     1   ar
    31    30    24   ar
    32    20    15   ar
    33     9     4   ar
    34    10    13    1
