@<TRIPOS>MOLECULE
*****
 25 25 0 0 0
SMALL
GASTEIGER

@<TRIPOS>ATOM
      1 C          60.5174   89.1892   10.2095 C.2     1  UNL1        0.2140
      2 C          61.4869   88.7913   11.2825 C.2     1  UNL1        0.2140
      3 C          62.2028   87.4759   11.1964 C.2     1  UNL1        0.2282
      4 O          63.1724   87.0781   12.2696 O.2     1  UNL1       -0.2836
      5 C          61.9490   86.5585   10.0372 C.2     1  UNL1        0.0191
      6 C          60.9794   86.9564    8.9641 C.2     1  UNL1        0.0195
      7 C          60.7256   86.0389    7.8048 C.3     1  UNL1        0.0343
      8 C          60.2636   88.2717    9.0503 C.2     1  UNL1        0.2282
      9 O          59.2940   88.6696    7.9771 O.2     1  UNL1       -0.2836
     10 C          59.0223   90.8550   11.5284 C.3     1  UNL1        0.2528
     11 O          59.8015   90.5046   10.2956 O.2     1  UNL1       -0.4652
     12 O          61.7408   89.7088   12.4418 O.2     1  UNL1       -0.4652
     13 C          63.0229   90.4834   12.5185 C.3     1  UNL1        0.2528
     14 C          62.6648   85.2431    9.9511 C.3     1  UNL1        0.0295
     15 C          62.7294   84.3444   11.1503 C.3     1  UNL1        0.0048
     16 C          64.0032   83.6242   11.4801 C.3     1  UNL1        0.0003
     17 C          64.0956   82.1390   11.2907 C.3     1  UNL1        0.0000
     18 C          62.8976   81.2740   11.5492 C.3     1  UNL1        0.0000
     19 C          62.5874   80.8200   12.9447 C.3     1  UNL1        0.0000
     20 C          61.9092   81.7530   13.9036 C.3     1  UNL1        0.0001
     21 C          62.7288   82.6240   14.8090 C.3     1  UNL1        0.0026
     22 C          62.2379   83.9920   15.1800 C.3     1  UNL1        0.0317
     23 C          63.2028   85.0243   15.6833 C.3     1  UNL1        0.1372
     24 O          63.7766   86.0383   14.7385 O.3     1  UNL1       -0.3820
     25 H          64.3412   85.5915   14.0885 H       1  UNL1        0.2104
@<TRIPOS>BOND
     1    10    11    1
     2    11     1    1
     3     1     2    2
     4     2    12    1
     5    12    13    1
     6     2     3    1
     7     3     4    2
     8     3     5    1
     9     5    14    1
    10    14    15    1
    11    15    16    1
    12    16    17    1
    13    17    18    1
    14    18    19    1
    15    19    20    1
    16    20    21    1
    17    21    22    1
    18    22    23    1
    19    23    24    1
    20     5     6    2
    21     6     7    1
    22     6     8    1
    23     8     9    2
    24     8     1    1
    25    24    25    1
@<TRIPOS>MOLECULE
*****
 25 25 0 0 0
SMALL
GASTEIGER

@<TRIPOS>ATOM
      1 C          65.7866   91.4449   14.0382 C.2     1  UNL1        0.2140
      2 C          64.5545   90.5975   14.1563 C.2     1  UNL1        0.2140
      3 C          63.5854   90.5198   13.0141 C.2     1  UNL1        0.2282
      4 O          62.3533   89.6723   13.1323 O.2     1  UNL1       -0.2836
      5 C          63.8482   91.2895   11.7538 C.2     1  UNL1        0.0191
      6 C          65.0802   92.1369   11.6357 C.2     1  UNL1        0.0195
      7 C          65.3430   92.9067   10.3753 C.3     1  UNL1        0.0343
      8 C          66.0494   92.2146   12.7779 C.2     1  UNL1        0.2282
      9 O          67.2814   93.0621   12.6597 O.2     1  UNL1       -0.2836
     10 C          66.7771   92.7340   16.0648 C.3     1  UNL1        0.2528
     11 O          66.7558   91.5226   15.1804 O.2     1  UNL1       -0.4652
     12 O          64.2917   89.8278   15.4167 O.2     1  UNL1       -0.4652
     13 C          63.4045   90.4073   16.4782 C.3     1  UNL1        0.2528
     14 C          62.8790   91.2118   10.6116 C.3     1  UNL1        0.0295
     15 C          62.4957   89.8779   10.0426 C.3     1  UNL1        0.0048
     16 C          61.0927   89.3709   10.1992 C.3     1  UNL1        0.0003
     17 C          60.2856   89.0111    8.9870 C.3     1  UNL1        0.0000
     18 C          59.7210   87.6287    8.8451 C.3     1  UNL1        0.0000
     19 C          60.1649   86.7497    7.7137 C.3     1  UNL1        0.0000
     20 C          61.2044   85.6939    7.9475 C.3     1  UNL1        0.0001
     21 C          62.3743   85.9783    8.8424 C.3     1  UNL1        0.0026
     22 C          62.4790   85.3025   10.1774 C.3     1  UNL1        0.0317
     23 C          61.9496   85.9819   11.4055 C.3     1  UNL1        0.1372
     24 O          62.8050   86.9672   12.1453 O.3     1  UNL1       -0.3820
     25 H          63.5680   86.5081   12.5300 H       1  UNL1        0.2104
@<TRIPOS>BOND
     1    10    11    1
     2    11     1    1
     3     1     2    2
     4     2    12    1
     5    12    13    1
     6     2     3    1
     7     3     4    2
     8     3     5    1
     9     5    14    1
    10    14    15    1
    11    15    16    1
    12    16    17    1
    13    17    18    1
    14    18    19    1
    15    19    20    1
    16    20    21    1
    17    21    22    1
    18    22    23    1
    19    23    24    1
    20     5     6    2
    21     6     7    1
    22     6     8    1
    23     8     9    2
    24     8     1    1
    25    24    25    1
@<TRIPOS>MOLECULE
*****
 25 25 0 0 0
SMALL
GASTEIGER

@<TRIPOS>ATOM
      1 C          65.7543   91.4495   14.0742 C.2     1  UNL1        0.2140
      2 C          64.5644   90.5400   14.1567 C.2     1  UNL1        0.2140
      3 C          63.6148   90.4404   12.9998 C.2     1  UNL1        0.2282
      4 O          62.4249   89.5308   13.0824 O.2     1  UNL1       -0.2836
      5 C          63.8551   91.2505   11.7604 C.2     1  UNL1        0.0191
      6 C          65.0450   92.1600   11.6779 C.2     1  UNL1        0.0195
      7 C          65.2853   92.9701   10.4385 C.3     1  UNL1        0.0343
      8 C          65.9946   92.2595   12.8348 C.2     1  UNL1        0.2282
      9 O          67.1846   93.1691   12.7522 O.2     1  UNL1       -0.2836
     10 C          66.6100   92.7060   16.1810 C.3     1  UNL1        0.2528
     11 O          66.7040   91.5490   15.2310 O.2     1  UNL1       -0.4652
     12 O          64.3241   89.7299   15.3961 O.2     1  UNL1       -0.4652
     13 C          63.3505   90.2121   16.4302 C.3     1  UNL1        0.2528
     14 C          62.9055   91.1509   10.6036 C.3     1  UNL1        0.0295
     15 C          62.6928   89.8333    9.9191 C.3     1  UNL1        0.0048
     16 C          61.3101   89.2635    9.8020 C.3     1  UNL1        0.0003
     17 C          61.1199   87.8388    9.3731 C.3     1  UNL1        0.0000
     18 C          62.0849   86.7838    9.8268 C.3     1  UNL1        0.0000
     19 C          61.7664   85.9422   11.0268 C.3     1  UNL1        0.0000
     20 C          62.3941   84.5886   11.1816 C.3     1  UNL1        0.0001
     21 C          63.4594   84.3696   12.2147 C.3     1  UNL1        0.0026
     22 C          63.1764   84.6643   13.6580 C.3     1  UNL1        0.0317
     23 C          64.0415   85.6322   14.4094 C.3     1  UNL1        0.1372
     24 O          63.9422   87.1021   14.1276 O.3     1  UNL1       -0.3820
     25 H          64.2472   87.2795   13.2241 H       1  UNL1        0.2104
@<TRIPOS>BOND
     1    10    11    1
     2    11     1    1
     3     1     2    2
     4     2    12    1
     5    12    13    1
     6     2     3    1
     7     3     4    2
     8     3     5    1
     9     5    14    1
    10    14    15    1
    11    15    16    1
    12    16    17    1
    13    17    18    1
    14    18    19    1
    15    19    20    1
    16    20    21    1
    17    21    22    1
    18    22    23    1
    19    23    24    1
    20     5     6    2
    21     6     7    1
    22     6     8    1
    23     8     9    2
    24     8     1    1
    25    24    25    1
@<TRIPOS>MOLECULE
*****
 25 25 0 0 0
SMALL
GASTEIGER

@<TRIPOS>ATOM
      1 C          63.5356   83.6185   11.9051 C.2     1  UNL1        0.2140
      2 C          62.6527   84.7150   12.4229 C.2     1  UNL1        0.2140
      3 C          62.0548   85.7087   11.4716 C.2     1  UNL1        0.2282
      4 O          61.1719   86.8053   11.9895 O.2     1  UNL1       -0.2836
      5 C          62.3397   85.6060   10.0026 C.2     1  UNL1        0.0191
      6 C          63.2225   84.5094    9.4848 C.2     1  UNL1        0.0195
      7 C          63.5075   84.4066    8.0156 C.3     1  UNL1        0.0343
      8 C          63.8205   83.5157   10.4361 C.2     1  UNL1        0.2282
      9 O          64.7034   82.4191    9.9182 O.2     1  UNL1       -0.2836
     10 C          63.3265   81.4469   13.3160 C.3     1  UNL1        0.2528
     11 O          64.1335   82.6248   12.8564 O.2     1  UNL1       -0.4652
     12 O          62.3678   84.8179   13.8921 O.2     1  UNL1       -0.4652
     13 C          63.4517   85.2415   14.8384 C.3     1  UNL1        0.2528
     14 C          61.7417   86.5997    9.0513 C.3     1  UNL1        0.0295
     15 C          60.3310   86.4246    8.5725 C.3     1  UNL1        0.0048
     16 C          59.4193   87.6117    8.4752 C.3     1  UNL1        0.0003
     17 C          59.9842   88.9994    8.5493 C.3     1  UNL1        0.0000
     18 C          60.3888   89.5746    9.8742 C.3     1  UNL1        0.0000
     19 C          61.6965   90.2966   10.0105 C.3     1  UNL1        0.0000
     20 C          62.7960   89.7060   10.8425 C.3     1  UNL1        0.0001
     21 C          62.8863   90.0291   12.3046 C.3     1  UNL1        0.0026
     22 C          63.7147   89.1695   13.2128 C.3     1  UNL1        0.0317
     23 C          63.8191   89.5027   14.6716 C.3     1  UNL1        0.1372
     24 O          62.5759   89.6561   15.4967 O.3     1  UNL1       -0.3820
     25 H          62.0770   90.4290   15.1891 H       1  UNL1        0.2104
@<TRIPOS>BOND
     1    10    11    1
     2    11     1    1
     3     1     2    2
     4     2    12    1
     5    12    13    1
     6     2     3    1
     7     3     4    2
     8     3     5    1
     9     5    14    1
    10    14    15    1
    11    15    16    1
    12    16    17    1
    13    17    18    1
    14    18    19    1
    15    19    20    1
    16    20    21    1
    17    21    22    1
    18    22    23    1
    19    23    24    1
    20     5     6    2
    21     6     7    1
    22     6     8    1
    23     8     9    2
    24     8     1    1
    25    24    25    1
@<TRIPOS>MOLECULE
*****
 25 25 0 0 0
SMALL
GASTEIGER

@<TRIPOS>ATOM
      1 C          66.2772   92.9673   14.3806 C.2     1  UNL1        0.2140
      2 C          65.9878   92.8395   12.9144 C.2     1  UNL1        0.2140
      3 C          64.9181   91.9010   12.4401 C.2     1  UNL1        0.2282
      4 O          64.6287   91.7731   10.9738 O.2     1  UNL1       -0.2836
      5 C          64.1378   91.0903   13.4320 C.2     1  UNL1        0.0191
      6 C          64.4272   91.2182   14.8982 C.2     1  UNL1        0.0195
      7 C          63.6468   90.4075   15.8902 C.3     1  UNL1        0.0343
      8 C          65.4969   92.1567   15.3725 C.2     1  UNL1        0.2282
      9 O          65.7862   92.2845   16.8388 O.2     1  UNL1       -0.2836
     10 C          68.5741   93.3658   15.5275 C.3     1  UNL1        0.2528
     11 O          67.3469   93.9058   14.8549 O.2     1  UNL1       -0.4652
     12 O          66.7681   93.6501   11.9224 O.2     1  UNL1       -0.4652
     13 C          66.2422   94.9758   11.4579 C.3     1  UNL1        0.2528
     14 C          63.0681   90.1518   12.9577 C.3     1  UNL1        0.0295
     15 C          63.4304   88.7678   12.5070 C.3     1  UNL1        0.0048
     16 C          62.6623   88.1156   11.3959 C.3     1  UNL1        0.0003
     17 C          62.1355   86.7215   11.5659 C.3     1  UNL1        0.0000
     18 C          62.3625   85.6980   10.4930 C.3     1  UNL1        0.0000
     19 C          62.4928   86.1278    9.0619 C.3     1  UNL1        0.0000
     20 C          61.3141   86.0305    8.1392 C.3     1  UNL1        0.0001
     21 C          59.9719   86.5334    8.5816 C.3     1  UNL1        0.0026
     22 C          59.0817   87.2497    7.6096 C.3     1  UNL1        0.0317
     23 C          59.2660   88.7181    7.3656 C.3     1  UNL1        0.1372
     24 O          60.1465   89.5247    8.2734 O.3     1  UNL1       -0.3820
     25 H          59.7548   89.5554    9.1603 H       1  UNL1        0.2104
@<TRIPOS>BOND
     1    10    11    1
     2    11     1    1
     3     1     2    2
     4     2    12    1
     5    12    13    1
     6     2     3    1
     7     3     4    2
     8     3     5    1
     9     5    14    1
    10    14    15    1
    11    15    16    1
    12    16    17    1
    13    17    18    1
    14    18    19    1
    15    19    20    1
    16    20    21    1
    17    21    22    1
    18    22    23    1
    19    23    24    1
    20     5     6    2
    21     6     7    1
    22     6     8    1
    23     8     9    2
    24     8     1    1
    25    24    25    1
@<TRIPOS>MOLECULE
*****
 25 25 0 0 0
SMALL
GASTEIGER

@<TRIPOS>ATOM
      1 C          66.0413   92.9037   12.5367 C.2     1  UNL1        0.2140
      2 C          66.1729   92.8882   14.0308 C.2     1  UNL1        0.2140
      3 C          65.2898   91.9964   14.8523 C.2     1  UNL1        0.2282
      4 O          65.4214   91.9809   16.3465 O.2     1  UNL1       -0.2836
      5 C          64.2751   91.1201   14.1796 C.2     1  UNL1        0.0191
      6 C          64.1435   91.1356   12.6855 C.2     1  UNL1        0.0195
      7 C          63.1288   90.2593   12.0128 C.3     1  UNL1        0.0343
      8 C          65.0267   92.0274   11.8641 C.2     1  UNL1        0.2282
      9 O          64.8951   92.0429   10.3699 O.2     1  UNL1       -0.2836
     10 C          66.3970   95.0995   11.1944 C.3     1  UNL1        0.2528
     11 O          66.9245   93.7955   11.7153 O.2     1  UNL1       -0.4652
     12 O          67.1876   93.7645   14.7036 O.2     1  UNL1       -0.4652
     13 C          68.4074   93.1556   15.3292 C.3     1  UNL1        0.2528
     14 C          63.3920   90.2283   15.0011 C.3     1  UNL1        0.0295
     15 C          63.9091   88.9099   15.4953 C.3     1  UNL1        0.0048
     16 C          64.2579   87.8269   14.5177 C.3     1  UNL1        0.0003
     17 C          64.5919   86.4503   15.0111 C.3     1  UNL1        0.0000
     18 C          64.1918   85.2482   14.2080 C.3     1  UNL1        0.0000
     19 C          64.3686   83.8723   14.7786 C.3     1  UNL1        0.0000
     20 C          63.4852   82.7505   14.3189 C.3     1  UNL1        0.0001
     21 C          62.6523   82.9106   13.0817 C.3     1  UNL1        0.0026
     22 C          62.7717   81.9178   11.9636 C.3     1  UNL1        0.0317
     23 C          63.5890   82.2493   10.7503 C.3     1  UNL1        0.1372
     24 O          65.0082   82.7097   10.9049 O.3     1  UNL1       -0.3820
     25 H          65.0219   83.5713   11.3502 H       1  UNL1        0.2104
@<TRIPOS>BOND
     1    10    11    1
     2    11     1    1
     3     1     2    2
     4     2    12    1
     5    12    13    1
     6     2     3    1
     7     3     4    2
     8     3     5    1
     9     5    14    1
    10    14    15    1
    11    15    16    1
    12    16    17    1
    13    17    18    1
    14    18    19    1
    15    19    20    1
    16    20    21    1
    17    21    22    1
    18    22    23    1
    19    23    24    1
    20     5     6    2
    21     6     7    1
    22     6     8    1
    23     8     9    2
    24     8     1    1
    25    24    25    1
@<TRIPOS>MOLECULE
*****
 25 25 0 0 0
SMALL
GASTEIGER

@<TRIPOS>ATOM
      1 C          65.8746   92.2965   12.7882 C.2     1  UNL1        0.2140
      2 C          65.1588   92.3499   11.4711 C.2     1  UNL1        0.2140
      3 C          64.0135   91.4195   11.2016 C.2     1  UNL1        0.2282
      4 O          63.2978   91.4730    9.8844 O.2     1  UNL1       -0.2836
      5 C          63.5840   90.4357   12.2492 C.2     1  UNL1        0.0191
      6 C          64.2998   90.3823   13.5663 C.2     1  UNL1        0.0195
      7 C          63.8703   89.3984   14.6140 C.3     1  UNL1        0.0343
      8 C          65.4451   91.3127   13.8358 C.2     1  UNL1        0.2282
      9 O          66.1609   91.2593   15.1529 O.2     1  UNL1       -0.2836
     10 C          66.9438   94.1999   14.1967 C.3     1  UNL1        0.2528
     11 O          67.0199   93.2270   13.0576 O.2     1  UNL1       -0.4652
     12 O          65.5883   93.3338   10.4234 O.2     1  UNL1       -0.4652
     13 C          65.5477   94.8048   10.7142 C.3     1  UNL1        0.2528
     14 C          62.4387   89.5053   11.9797 C.3     1  UNL1        0.0295
     15 C          62.7049   88.0877   11.5680 C.3     1  UNL1        0.0048
     16 C          61.7684   87.3920   10.6252 C.3     1  UNL1        0.0003
     17 C          61.4260   85.9472   10.8382 C.3     1  UNL1        0.0000
     18 C          62.4232   85.0264   11.4768 C.3     1  UNL1        0.0000
     19 C          63.2545   84.1139   10.6246 C.3     1  UNL1        0.0000
     20 C          63.8582   82.8760   11.2189 C.3     1  UNL1        0.0001
     21 C          63.0026   81.6692   11.4674 C.3     1  UNL1        0.0026
     22 C          62.9757   81.0361   12.8270 C.3     1  UNL1        0.0317
     23 C          61.9394   81.4531   13.8281 C.3     1  UNL1        0.1372
     24 O          62.3543   82.1405   15.0951 O.3     1  UNL1       -0.3820
     25 H          62.8704   81.5273   15.6415 H       1  UNL1        0.2104
@<TRIPOS>BOND
     1    10    11    1
     2    11     1    1
     3     1     2    2
     4     2    12    1
     5    12    13    1
     6     2     3    1
     7     3     4    2
     8     3     5    1
     9     5    14    1
    10    14    15    1
    11    15    16    1
    12    16    17    1
    13    17    18    1
    14    18    19    1
    15    19    20    1
    16    20    21    1
    17    21    22    1
    18    22    23    1
    19    23    24    1
    20     5     6    2
    21     6     7    1
    22     6     8    1
    23     8     9    2
    24     8     1    1
    25    24    25    1
@<TRIPOS>MOLECULE
*****
 25 25 0 0 0
SMALL
GASTEIGER

@<TRIPOS>ATOM
      1 C          65.8401   92.2480   12.7440 C.2     1  UNL1        0.2140
      2 C          65.0951   92.4178   11.4533 C.2     1  UNL1        0.2140
      3 C          63.9605   91.4967   11.1154 C.2     1  UNL1        0.2282
      4 O          63.2154   91.6666    9.8246 O.2     1  UNL1       -0.2836
      5 C          63.5709   90.4057   12.0682 C.2     1  UNL1        0.0191
      6 C          64.3160   90.2359   13.3589 C.2     1  UNL1        0.0195
      7 C          63.9264   89.1448   14.3119 C.3     1  UNL1        0.0343
      8 C          65.4506   91.1570   13.6968 C.2     1  UNL1        0.2282
      9 O          66.1956   90.9872   14.9876 O.2     1  UNL1       -0.2836
     10 C          66.9206   93.9993   14.3300 C.3     1  UNL1        0.2528
     11 O          66.9747   93.1692   13.0819 O.2     1  UNL1       -0.4652
     12 O          65.4846   93.5089   10.5003 O.2     1  UNL1       -0.4652
     13 C          66.8036   93.4476    9.7888 C.3     1  UNL1        0.2528
     14 C          62.4363   89.4845   11.7303 C.3     1  UNL1        0.0295
     15 C          61.0716   90.0441   11.4579 C.3     1  UNL1        0.0048
     16 C          60.3183   89.6205   10.2319 C.3     1  UNL1        0.0003
     17 C          60.0273   88.1682    9.9949 C.3     1  UNL1        0.0000
     18 C          60.9065   87.3664    9.0817 C.3     1  UNL1        0.0000
     19 C          61.9579   86.4632    9.6550 C.3     1  UNL1        0.0000
     20 C          61.7068   85.7464   10.9485 C.3     1  UNL1        0.0001
     21 C          62.5244   84.5416   11.3093 C.3     1  UNL1        0.0026
     22 C          63.4879   83.9640   10.3153 C.3     1  UNL1        0.0317
     23 C          64.1350   82.6372   10.5817 C.3     1  UNL1        0.1372
     24 O          65.2080   82.5218   11.6234 O.3     1  UNL1       -0.3820
     25 H          65.9863   83.0286   11.3435 H       1  UNL1        0.2104
@<TRIPOS>BOND
     1    10    11    1
     2    11     1    1
     3     1     2    2
     4     2    12    1
     5    12    13    1
     6     2     3    1
     7     3     4    2
     8     3     5    1
     9     5    14    1
    10    14    15    1
    11    15    16    1
    12    16    17    1
    13    17    18    1
    14    18    19    1
    15    19    20    1
    16    20    21    1
    17    21    22    1
    18    22    23    1
    19    23    24    1
    20     5     6    2
    21     6     7    1
    22     6     8    1
    23     8     9    2
    24     8     1    1
    25    24    25    1
@<TRIPOS>MOLECULE
*****
 25 25 0 0 0
SMALL
GASTEIGER

@<TRIPOS>ATOM
      1 C          60.5024   88.8928   10.1505 C.2     1  UNL1        0.2140
      2 C          60.0517   87.9950    9.0367 C.2     1  UNL1        0.2140
      3 C          60.5673   86.5890    8.9514 C.2     1  UNL1        0.2282
      4 O          60.1165   85.6911    7.8375 O.2     1  UNL1       -0.2836
      5 C          61.5337   86.0809    9.9798 C.2     1  UNL1        0.0191
      6 C          61.9845   86.9787   11.0937 C.2     1  UNL1        0.0195
      7 C          62.9509   86.4706   12.1222 C.3     1  UNL1        0.0343
      8 C          61.4688   88.3847   11.1790 C.2     1  UNL1        0.2282
      9 O          61.9196   89.2826   12.2929 O.2     1  UNL1       -0.2836
     10 C          59.1979   90.7369   11.4340 C.3     1  UNL1        0.2528
     11 O          59.9868   90.2988   10.2358 O.2     1  UNL1       -0.4652
     12 O          59.0852   88.5031    8.0081 O.2     1  UNL1       -0.4652
     13 C          59.5855   89.2893    6.8327 C.3     1  UNL1        0.2528
     14 C          62.0494   84.6749    9.8945 C.3     1  UNL1        0.0295
     15 C          63.5183   84.4238    9.7237 C.3     1  UNL1        0.0048
     16 C          64.0925   83.0779   10.0535 C.3     1  UNL1        0.0003
     17 C          63.5543   82.2973   11.2160 C.3     1  UNL1        0.0000
     18 C          63.7698   82.7918   12.6156 C.3     1  UNL1        0.0000
     19 C          62.6384   82.7732   13.6002 C.3     1  UNL1        0.0000
     20 C          62.4901   83.8874   14.5935 C.3     1  UNL1        0.0001
     21 C          63.7000   84.4397   15.2871 C.3     1  UNL1        0.0026
     22 C          63.6314   85.7764   15.9644 C.3     1  UNL1        0.0317
     23 C          62.8149   85.9441   17.2115 C.3     1  UNL1        0.1372
     24 O          61.3612   86.3008   17.1139 O.3     1  UNL1       -0.3820
     25 H          61.2712   87.1913   16.7399 H       1  UNL1        0.2104
@<TRIPOS>BOND
     1    10    11    1
     2    11     1    1
     3     1     2    2
     4     2    12    1
     5    12    13    1
     6     2     3    1
     7     3     4    2
     8     3     5    1
     9     5    14    1
    10    14    15    1
    11    15    16    1
    12    16    17    1
    13    17    18    1
    14    18    19    1
    15    19    20    1
    16    20    21    1
    17    21    22    1
    18    22    23    1
    19    23    24    1
    20     5     6    2
    21     6     7    1
    22     6     8    1
    23     8     9    2
    24     8     1    1
    25    24    25    1
