@<TRIPOS>MOLECULE
*****
 32 35 0 0 0
SMALL
GASTEIGER

@<TRIPOS>ATOM
      1 C          63.7164   86.8020   14.8947 C.ar    1  UNL1        0.2218
      2 N          63.2454   86.2311   16.1995 N.ar    1  UNL1       -0.2119
      3 C          62.9196   87.1445   17.3438 C.ar    1  UNL1        0.1047
      4 C          63.0648   88.6288   17.1834 C.ar    1  UNL1        0.0552
      5 C          63.5357   89.1997   15.8787 C.ar    1  UNL1        0.1367
      6 N          63.8615   88.2863   14.7343 N.ar    1  UNL1       -0.1985
      7 N          64.0421   85.8886   13.7504 N.pl3   1  UNL1       -0.2825
      8 H          64.7996   85.2635   13.8197 H       1  UNL1        0.1551
      9 C          61.5571   86.0051   10.0006 C.ar    1  UNL1        0.0685
     10 C          62.0208   84.6897   10.5525 C.ar    1  UNL1        0.0115
     11 C          62.8491   84.6508   11.8024 C.ar    1  UNL1        0.0154
     12 C          63.2138   85.9274   12.5004 C.ar    1  UNL1        0.0505
     13 C          62.7501   87.2428   11.9485 C.ar    1  UNL1        0.0154
     14 C          61.9218   87.2817   10.6986 C.ar    1  UNL1        0.0115
     15 N          59.9004   86.0828    7.5007 N.1     1  UNL1       -0.1908
     16 C          60.7288   86.0439    8.7506 C.1     1  UNL1        0.1004
     17 N          63.6809   90.6840   15.7183 N.pl3   1  UNL1       -0.2943
     18 H          63.2978   91.2917   16.3916 H       1  UNL1        0.1537
     19 C          64.4097   91.2425   14.5323 C.ar    1  UNL1        0.1050
     20 C          65.7302   91.9294   14.7186 C.ar    1  UNL1        0.1557
     21 F          66.3218   92.0576   16.0910 F       1  UNL1       -0.2028
     22 C          66.4590   92.4879   13.5325 C.ar    1  UNL1        0.0311
     23 C          65.8674   92.3596   12.1600 C.ar    1  UNL1        0.0047
     24 C          64.5470   91.6728   11.9737 C.ar    1  UNL1        0.0311
     25 C          63.8181   91.1143   13.1598 C.ar    1  UNL1        0.1557
     26 F          62.4977   90.4275   12.9735 F       1  UNL1       -0.2028
     27 C          66.5963   92.9181   10.9740 C.ar    1  UNL1        0.0032
     28 C          66.2100   94.2569   10.4185 C.ar    1  UNL1        0.0207
     29 C          66.9388   94.8154    9.2324 C.ar    1  UNL1        0.0989
     30 N          68.0539   94.0351    8.6017 N.ar    1  UNL1       -0.2423
     31 C          68.4403   92.6964    9.1572 C.ar    1  UNL1        0.0989
     32 C          67.7114   92.1379   10.3433 C.ar    1  UNL1        0.0207
@<TRIPOS>BOND
     1    15    16    3
     2    16     9    1
     3     9    10   ar
     4    10    11   ar
     5    11    12   ar
     6    12     7    1
     7     7     1    1
     8     1     2   ar
     9     2     3   ar
    10     3     4   ar
    11     4     5   ar
    12     5    17    1
    13    17    19    1
    14    19    20   ar
    15    20    21    1
    16    20    22   ar
    17    22    23   ar
    18    23    27    1
    19    27    28   ar
    20    28    29   ar
    21    29    30   ar
    22    30    31   ar
    23    31    32   ar
    24    23    24   ar
    25    24    25   ar
    26    25    26    1
    27     5     6   ar
    28    12    13   ar
    29    13    14   ar
    30    14     9   ar
    31     6     1   ar
    32    25    19   ar
    33    32    27   ar
    34     7     8    1
    35    17    18    1
@<TRIPOS>MOLECULE
*****
 32 35 0 0 0
SMALL
GASTEIGER

@<TRIPOS>ATOM
      1 C          63.7250   86.7942   14.8860 C.ar    1  UNL1        0.2218
      2 N          63.2572   86.2219   16.1913 N.ar    1  UNL1       -0.2119
      3 C          62.9331   87.1342   17.3369 C.ar    1  UNL1        0.1047
      4 C          63.0766   88.6188   17.1774 C.ar    1  UNL1        0.0552
      5 C          63.5444   89.1910   15.8722 C.ar    1  UNL1        0.1367
      6 N          63.8686   88.2787   14.7264 N.ar    1  UNL1       -0.1985
      7 N          64.0492   85.8819   13.7403 N.pl3   1  UNL1       -0.2825
      8 H          64.8073   85.2574   13.8076 H       1  UNL1        0.1551
      9 C          61.5568   85.9995    9.9955 C.ar    1  UNL1        0.0685
     10 C          62.0237   84.6841   10.5446 C.ar    1  UNL1        0.0115
     11 C          62.8546   84.6449   11.7929 C.ar    1  UNL1        0.0154
     12 C          63.2184   85.9211   12.4920 C.ar    1  UNL1        0.0505
     13 C          62.7514   87.2365   11.9429 C.ar    1  UNL1        0.0154
     14 C          61.9206   87.2757   10.6946 C.ar    1  UNL1        0.0115
     15 N          59.8951   86.0779    7.4989 N.1     1  UNL1       -0.1908
     16 C          60.7259   86.0387    8.7472 C.1     1  UNL1        0.1004
     17 N          63.6879   90.6756   15.7126 N.pl3   1  UNL1       -0.2943
     18 H          63.3041   91.2825   16.3861 H       1  UNL1        0.1537
     19 C          64.4164   91.2355   14.5269 C.ar    1  UNL1        0.1050
     20 C          63.8218   91.1135   13.1552 C.ar    1  UNL1        0.1557
     21 F          62.4988   90.4315   12.9691 F       1  UNL1       -0.2028
     22 C          64.5503   91.6734   11.9695 C.ar    1  UNL1        0.0311
     23 C          65.8733   92.3554   12.1555 C.ar    1  UNL1        0.0047
     24 C          66.4678   92.4774   13.5272 C.ar    1  UNL1        0.0311
     25 C          65.7394   91.9175   14.7130 C.ar    1  UNL1        0.1557
     26 F          66.3340   92.0395   16.0846 F       1  UNL1       -0.2028
     27 C          66.6017   92.9153   10.9699 C.ar    1  UNL1        0.0032
     28 C          66.2184   94.2569   10.4191 C.ar    1  UNL1        0.0207
     29 C          66.9468   94.8168    9.2334 C.ar    1  UNL1        0.0989
     30 N          68.0586   94.0352    8.5985 N.ar    1  UNL1       -0.2423
     31 C          68.4419   92.6937    9.1492 C.ar    1  UNL1        0.0989
     32 C          67.7134   92.1337   10.3350 C.ar    1  UNL1        0.0207
@<TRIPOS>BOND
     1    15    16    3
     2    16     9    1
     3     9    10   ar
     4    10    11   ar
     5    11    12   ar
     6    12     7    1
     7     7     1    1
     8     1     2   ar
     9     2     3   ar
    10     3     4   ar
    11     4     5   ar
    12     5    17    1
    13    17    19    1
    14    19    20   ar
    15    20    21    1
    16    20    22   ar
    17    22    23   ar
    18    23    27    1
    19    27    28   ar
    20    28    29   ar
    21    29    30   ar
    22    30    31   ar
    23    31    32   ar
    24    23    24   ar
    25    24    25   ar
    26    25    26    1
    27     5     6   ar
    28    12    13   ar
    29    13    14   ar
    30    14     9   ar
    31     6     1   ar
    32    25    19   ar
    33    32    27   ar
    34     7     8    1
    35    17    18    1
@<TRIPOS>MOLECULE
*****
 32 35 0 0 0
SMALL
GASTEIGER

@<TRIPOS>ATOM
      1 C          61.9140   87.1871    9.6975 C.ar    1  UNL1        0.2218
      2 N          60.8841   87.6731    8.7211 N.ar    1  UNL1       -0.2119
      3 C          60.0182   88.8481    9.0671 C.ar    1  UNL1        0.1047
      4 C          60.1822   89.5371   10.3894 C.ar    1  UNL1        0.0552
      5 C          61.2121   89.0511   11.3657 C.ar    1  UNL1        0.1367
      6 N          62.0780   87.8761   11.0197 N.ar    1  UNL1       -0.1985
      7 N          62.7799   86.0122    9.3515 N.pl3   1  UNL1       -0.2825
      8 H          63.2308   85.9735    8.4772 H       1  UNL1        0.1551
      9 C          63.3166   82.6641   12.3099 C.ar    1  UNL1        0.0685
     10 C          62.5785   83.9072   12.7098 C.ar    1  UNL1        0.0115
     11 C          62.3996   85.0232   11.7237 C.ar    1  UNL1        0.0154
     12 C          62.9588   84.8962   10.3376 C.ar    1  UNL1        0.0505
     13 C          63.6968   83.6531    9.9377 C.ar    1  UNL1        0.0154
     14 C          63.8757   82.5370   10.9239 C.ar    1  UNL1        0.0115
     15 N          63.6743   80.4320   14.2821 N.1     1  UNL1       -0.1908
     16 C          63.4954   81.5480   13.2960 C.1     1  UNL1        0.1004
     17 N          61.3761   89.7401   12.6879 N.pl3   1  UNL1       -0.2943
     18 H          60.6095   89.8181   13.3008 H       1  UNL1        0.1537
     19 C          62.7079   90.3104   13.0764 C.ar    1  UNL1        0.1050
     20 C          63.5070   91.0963   12.0794 C.ar    1  UNL1        0.1557
     21 F          62.9741   91.3119   10.6939 F       1  UNL1       -0.2028
     22 C          64.8388   91.6665   12.4679 C.ar    1  UNL1        0.0311
     23 C          65.3717   91.4509   13.8534 C.ar    1  UNL1        0.0047
     24 C          64.5727   90.6650   14.8504 C.ar    1  UNL1        0.0311
     25 C          63.2407   90.0947   14.4619 C.ar    1  UNL1        0.1557
     26 F          62.4418   89.3089   15.4589 F       1  UNL1       -0.2028
     27 C          66.7035   92.0211   14.2419 C.ar    1  UNL1        0.0032
     28 C          67.9237   91.6956   13.4324 C.ar    1  UNL1        0.0207
     29 C          69.2556   92.2658   13.8210 C.ar    1  UNL1        0.0989
     30 N          69.3673   93.1615   15.0189 N.ar    1  UNL1       -0.2423
     31 C          68.1472   93.4870   15.8284 C.ar    1  UNL1        0.0989
     32 C          66.8152   92.9168   15.4399 C.ar    1  UNL1        0.0207
@<TRIPOS>BOND
     1    15    16    3
     2    16     9    1
     3     9    10   ar
     4    10    11   ar
     5    11    12   ar
     6    12     7    1
     7     7     1    1
     8     1     2   ar
     9     2     3   ar
    10     3     4   ar
    11     4     5   ar
    12     5    17    1
    13    17    19    1
    14    19    20   ar
    15    20    21    1
    16    20    22   ar
    17    22    23   ar
    18    23    27    1
    19    27    28   ar
    20    28    29   ar
    21    29    30   ar
    22    30    31   ar
    23    31    32   ar
    24    23    24   ar
    25    24    25   ar
    26    25    26    1
    27     5     6   ar
    28    12    13   ar
    29    13    14   ar
    30    14     9   ar
    31     6     1   ar
    32    25    19   ar
    33    32    27   ar
    34     7     8    1
    35    17    18    1
@<TRIPOS>MOLECULE
*****
 32 35 0 0 0
SMALL
GASTEIGER

@<TRIPOS>ATOM
      1 C          61.9110   87.1931    9.6906 C.ar    1  UNL1        0.2218
      2 N          60.8821   87.6833    8.7154 N.ar    1  UNL1       -0.2119
      3 C          60.0191   88.8597    9.0637 C.ar    1  UNL1        0.1047
      4 C          60.1850   89.5459   10.3872 C.ar    1  UNL1        0.0552
      5 C          61.2139   89.0557   11.3624 C.ar    1  UNL1        0.1367
      6 N          62.0769   87.8793   11.0141 N.ar    1  UNL1       -0.1985
      7 N          62.7740   86.0167    9.3424 N.pl3   1  UNL1       -0.2825
      8 H          63.2195   85.9755    8.4654 H       1  UNL1        0.1551
      9 C          63.3268   82.6759   12.3060 C.ar    1  UNL1        0.0685
     10 C          63.8876   82.5498   10.9206 C.ar    1  UNL1        0.0115
     11 C          63.7034   83.6635    9.9327 C.ar    1  UNL1        0.0154
     12 C          62.9583   84.9031   10.3303 C.ar    1  UNL1        0.0505
     13 C          62.3974   85.0291   11.7157 C.ar    1  UNL1        0.0154
     14 C          62.5817   83.9155   12.7036 C.ar    1  UNL1        0.0115
     15 N          63.6953   80.4486   14.2818 N.1     1  UNL1       -0.1908
     16 C          63.5111   81.5623   13.2939 C.1     1  UNL1        0.1004
     17 N          61.3798   89.7419   12.6858 N.pl3   1  UNL1       -0.2943
     18 H          60.6146   89.8171   13.3007 H       1  UNL1        0.1537
     19 C          62.7116   90.3136   13.0725 C.ar    1  UNL1        0.1050
     20 C          63.2443   90.1029   14.4589 C.ar    1  UNL1        0.1557
     21 F          62.4452   89.3204   15.4585 F       1  UNL1       -0.2028
     22 C          64.5760   90.6746   14.8455 C.ar    1  UNL1        0.0311
     23 C          65.3751   91.4570   13.8459 C.ar    1  UNL1        0.0047
     24 C          64.8425   91.6678   12.4596 C.ar    1  UNL1        0.0311
     25 C          63.5107   91.0961   12.0729 C.ar    1  UNL1        0.1557
     26 F          62.9780   91.3068   10.6866 F       1  UNL1       -0.2028
     27 C          66.7069   92.0287   14.2326 C.ar    1  UNL1        0.0032
     28 C          67.9275   91.6992   13.4253 C.ar    1  UNL1        0.0207
     29 C          69.2593   92.2709   13.8120 C.ar    1  UNL1        0.0989
     30 N          69.3705   93.1721   15.0059 N.ar    1  UNL1       -0.2423
     31 C          68.1500   93.5017   15.8131 C.ar    1  UNL1        0.0989
     32 C          66.8181   92.9300   15.4265 C.ar    1  UNL1        0.0207
@<TRIPOS>BOND
     1    15    16    3
     2    16     9    1
     3     9    10   ar
     4    10    11   ar
     5    11    12   ar
     6    12     7    1
     7     7     1    1
     8     1     2   ar
     9     2     3   ar
    10     3     4   ar
    11     4     5   ar
    12     5    17    1
    13    17    19    1
    14    19    20   ar
    15    20    21    1
    16    20    22   ar
    17    22    23   ar
    18    23    27    1
    19    27    28   ar
    20    28    29   ar
    21    29    30   ar
    22    30    31   ar
    23    31    32   ar
    24    23    24   ar
    25    24    25   ar
    26    25    26    1
    27     5     6   ar
    28    12    13   ar
    29    13    14   ar
    30    14     9   ar
    31     6     1   ar
    32    25    19   ar
    33    32    27   ar
    34     7     8    1
    35    17    18    1
@<TRIPOS>MOLECULE
*****
 32 35 0 0 0
SMALL
GASTEIGER

@<TRIPOS>ATOM
      1 C          64.0865   86.8495   15.1143 C.ar    1  UNL1        0.2218
      2 N          63.5028   86.2975   16.3811 N.ar    1  UNL1       -0.2119
      3 C          62.9220   87.2259   17.4061 C.ar    1  UNL1        0.1047
      4 C          62.9249   88.7063   17.1645 C.ar    1  UNL1        0.0552
      5 C          63.5086   89.2583   15.8978 C.ar    1  UNL1        0.1367
      6 N          64.0894   88.3299   14.8727 N.ar    1  UNL1       -0.1985
      7 N          64.6673   85.9211   14.0893 N.pl3   1  UNL1       -0.2825
      8 H          65.4180   86.2177   13.5257 H       1  UNL1        0.1551
      9 C          62.9785   81.7800   13.5905 C.ar    1  UNL1        0.0685
     10 C          62.4368   82.6877   14.6547 C.ar    1  UNL1        0.0115
     11 C          62.9997   84.0681   14.8209 C.ar    1  UNL1        0.0154
     12 C          64.1044   84.5407   13.9230 C.ar    1  UNL1        0.0505
     13 C          64.6461   83.6330   12.8589 C.ar    1  UNL1        0.0154
     14 C          64.0831   82.2526   12.6926 C.ar    1  UNL1        0.0115
     15 N          61.8526   79.0192   13.2579 N.1     1  UNL1       -0.1908
     16 C          62.4155   80.3996   13.4242 C.1     1  UNL1        0.1004
     17 N          63.5115   90.7387   15.6561 N.pl3   1  UNL1       -0.2943
     18 H          62.9946   91.3346   16.2452 H       1  UNL1        0.1537
     19 C          64.3019   91.3111   14.5170 C.ar    1  UNL1        0.1050
     20 C          65.5618   92.0784   14.7892 C.ar    1  UNL1        0.1557
     21 F          66.0313   92.2732   16.2004 F       1  UNL1       -0.2028
     22 C          66.3522   92.6508   13.6501 C.ar    1  UNL1        0.0311
     23 C          65.8827   92.4561   12.2388 C.ar    1  UNL1        0.0047
     24 C          64.6228   91.6889   11.9667 C.ar    1  UNL1        0.0311
     25 C          63.8324   91.1164   13.1058 C.ar    1  UNL1        0.1557
     26 F          62.5725   90.3492   12.8336 F       1  UNL1       -0.2028
     27 C          66.6730   93.0285   11.0997 C.ar    1  UNL1        0.0032
     28 C          67.6555   92.1683   10.3614 C.ar    1  UNL1        0.0207
     29 C          68.4458   92.7407    9.2223 C.ar    1  UNL1        0.0989
     30 N          68.2538   94.1734    8.8215 N.ar    1  UNL1       -0.2423
     31 C          67.2715   95.0336    9.5597 C.ar    1  UNL1        0.0989
     32 C          66.4811   94.4611   10.6988 C.ar    1  UNL1        0.0207
@<TRIPOS>BOND
     1    15    16    3
     2    16     9    1
     3     9    10   ar
     4    10    11   ar
     5    11    12   ar
     6    12     7    1
     7     7     1    1
     8     1     2   ar
     9     2     3   ar
    10     3     4   ar
    11     4     5   ar
    12     5    17    1
    13    17    19    1
    14    19    20   ar
    15    20    21    1
    16    20    22   ar
    17    22    23   ar
    18    23    27    1
    19    27    28   ar
    20    28    29   ar
    21    29    30   ar
    22    30    31   ar
    23    31    32   ar
    24    23    24   ar
    25    24    25   ar
    26    25    26    1
    27     5     6   ar
    28    12    13   ar
    29    13    14   ar
    30    14     9   ar
    31     6     1   ar
    32    25    19   ar
    33    32    27   ar
    34     7     8    1
    35    17    18    1
@<TRIPOS>MOLECULE
*****
 32 35 0 0 0
SMALL
GASTEIGER

@<TRIPOS>ATOM
      1 C          64.0980   86.8482   15.0968 C.ar    1  UNL1        0.2218
      2 N          63.4927   86.3020   16.3559 N.ar    1  UNL1       -0.2119
      3 C          62.9111   87.2362   17.3751 C.ar    1  UNL1        0.1047
      4 C          62.9347   88.7168   17.1353 C.ar    1  UNL1        0.0552
      5 C          63.5401   89.2630   15.8763 C.ar    1  UNL1        0.1367
      6 N          64.1217   88.3288   14.8570 N.ar    1  UNL1       -0.1985
      7 N          64.6797   85.9140   14.0776 N.pl3   1  UNL1       -0.2825
      8 H          65.4361   86.2046   13.5185 H       1  UNL1        0.1551
      9 C          62.9670   81.7830   13.5755 C.ar    1  UNL1        0.0685
     10 C          62.3946   82.7123   14.6044 C.ar    1  UNL1        0.0115
     11 C          62.9655   84.0893   14.7718 C.ar    1  UNL1        0.0154
     12 C          64.1088   84.5370   13.9102 C.ar    1  UNL1        0.0505
     13 C          64.6812   83.6077   12.8813 C.ar    1  UNL1        0.0154
     14 C          64.1103   82.2307   12.7139 C.ar    1  UNL1        0.0115
     15 N          61.8253   79.0291   13.2408 N.1     1  UNL1       -0.1908
     16 C          62.3962   80.4060   13.4081 C.1     1  UNL1        0.1004
     17 N          63.5637   90.7435   15.6365 N.pl3   1  UNL1       -0.2943
     18 H          63.0667   91.3471   16.2348 H       1  UNL1        0.1537
     19 C          64.3446   91.3045   14.4852 C.ar    1  UNL1        0.1050
     20 C          63.8305   91.1507   13.0844 C.ar    1  UNL1        0.1557
     21 F          62.5355   90.4361   12.8350 F       1  UNL1       -0.2028
     22 C          64.6114   91.7116   11.9331 C.ar    1  UNL1        0.0311
     23 C          65.9064   92.4263   12.1825 C.ar    1  UNL1        0.0047
     24 C          66.4206   92.5800   13.5832 C.ar    1  UNL1        0.0311
     25 C          65.6397   92.0191   14.7346 C.ar    1  UNL1        0.1557
     26 F          66.1538   92.1728   16.1353 F       1  UNL1       -0.2028
     27 C          66.6873   92.9872   11.0312 C.ar    1  UNL1        0.0032
     28 C          66.4492   94.3977   10.5796 C.ar    1  UNL1        0.0207
     29 C          67.2300   94.9586    9.4283 C.ar    1  UNL1        0.0989
     30 N          68.2491   94.1090    8.7285 N.ar    1  UNL1       -0.2423
     31 C          68.4873   92.6986    9.1800 C.ar    1  UNL1        0.0989
     32 C          67.7064   92.1376   10.3314 C.ar    1  UNL1        0.0207
@<TRIPOS>BOND
     1    15    16    3
     2    16     9    1
     3     9    10   ar
     4    10    11   ar
     5    11    12   ar
     6    12     7    1
     7     7     1    1
     8     1     2   ar
     9     2     3   ar
    10     3     4   ar
    11     4     5   ar
    12     5    17    1
    13    17    19    1
    14    19    20   ar
    15    20    21    1
    16    20    22   ar
    17    22    23   ar
    18    23    27    1
    19    27    28   ar
    20    28    29   ar
    21    29    30   ar
    22    30    31   ar
    23    31    32   ar
    24    23    24   ar
    25    24    25   ar
    26    25    26    1
    27     5     6   ar
    28    12    13   ar
    29    13    14   ar
    30    14     9   ar
    31     6     1   ar
    32    25    19   ar
    33    32    27   ar
    34     7     8    1
    35    17    18    1
@<TRIPOS>MOLECULE
*****
 32 35 0 0 0
SMALL
GASTEIGER

@<TRIPOS>ATOM
      1 C          63.3165   85.8600   12.6660 C.ar    1  UNL1        0.2218
      2 N          64.1740   85.0666   13.6069 N.ar    1  UNL1       -0.2119
      3 C          64.8287   85.7420   14.7753 C.ar    1  UNL1        0.1047
      4 C          64.6260   87.2107   15.0029 C.ar    1  UNL1        0.0552
      5 C          63.7685   88.0041   14.0620 C.ar    1  UNL1        0.1367
      6 N          63.1137   87.3287   12.8936 N.ar    1  UNL1       -0.1985
      7 N          62.6618   85.1847   11.4976 N.pl3   1  UNL1       -0.2825
      8 H          62.7468   84.2108   11.3809 H       1  UNL1        0.1551
      9 C          60.3089   87.6099    8.5257 C.ar    1  UNL1        0.0685
     10 C          61.3167   86.6080    8.0458 C.ar    1  UNL1        0.0115
     11 C          62.1010   85.7996    9.0364 C.ar    1  UNL1        0.0154
     12 C          61.8775   85.9931   10.5070 C.ar    1  UNL1        0.0505
     13 C          60.8697   86.9950   10.9869 C.ar    1  UNL1        0.0154
     14 C          60.0854   87.8035    9.9962 C.ar    1  UNL1        0.0115
     15 N          58.7403   89.2268    6.5444 N.1     1  UNL1       -0.1908
     16 C          59.5246   88.4184    7.5350 C.1     1  UNL1        0.1004
     17 N          63.5658   89.4728   14.2896 N.pl3   1  UNL1       -0.2943
     18 H          62.9896   89.7819   15.0256 H       1  UNL1        0.1537
     19 C          64.2408   90.4704   13.3958 C.ar    1  UNL1        0.1050
     20 C          63.6555   90.7905   12.0522 C.ar    1  UNL1        0.1557
     21 F          62.3952   90.1128   11.6025 F       1  UNL1       -0.2028
     22 C          64.3306   91.7881   11.1584 C.ar    1  UNL1        0.0311
     23 C          65.5910   92.4658   11.6081 C.ar    1  UNL1        0.0047
     24 C          66.1763   92.1458   12.9516 C.ar    1  UNL1        0.0311
     25 C          65.5012   91.1481   13.8455 C.ar    1  UNL1        0.1557
     26 F          66.0865   90.8281   15.1890 F       1  UNL1       -0.2028
     27 C          66.2661   93.4634   10.7143 C.ar    1  UNL1        0.0032
     28 C          65.8361   94.9004   10.7349 C.ar    1  UNL1        0.0207
     29 C          66.5112   95.8981    9.8411 C.ar    1  UNL1        0.0989
     30 N          67.6162   95.4588    8.9267 N.ar    1  UNL1       -0.2423
     31 C          68.0461   94.0219    8.9062 C.ar    1  UNL1        0.0989
     32 C          67.3711   93.0242    9.8000 C.ar    1  UNL1        0.0207
@<TRIPOS>BOND
     1    15    16    3
     2    16     9    1
     3     9    10   ar
     4    10    11   ar
     5    11    12   ar
     6    12     7    1
     7     7     1    1
     8     1     2   ar
     9     2     3   ar
    10     3     4   ar
    11     4     5   ar
    12     5    17    1
    13    17    19    1
    14    19    20   ar
    15    20    21    1
    16    20    22   ar
    17    22    23   ar
    18    23    27    1
    19    27    28   ar
    20    28    29   ar
    21    29    30   ar
    22    30    31   ar
    23    31    32   ar
    24    23    24   ar
    25    24    25   ar
    26    25    26    1
    27     5     6   ar
    28    12    13   ar
    29    13    14   ar
    30    14     9   ar
    31     6     1   ar
    32    25    19   ar
    33    32    27   ar
    34     7     8    1
    35    17    18    1
@<TRIPOS>MOLECULE
*****
 32 35 0 0 0
SMALL
GASTEIGER

@<TRIPOS>ATOM
      1 C          63.3406   85.8554   12.6927 C.ar    1  UNL1        0.2218
      2 N          64.1890   85.0685   13.6472 N.ar    1  UNL1       -0.2119
      3 C          64.8270   85.7505   14.8210 C.ar    1  UNL1        0.1047
      4 C          64.6166   87.2194   15.0403 C.ar    1  UNL1        0.0552
      5 C          63.7683   88.0063   14.0859 C.ar    1  UNL1        0.1367
      6 N          63.1302   87.3243   12.9120 N.ar    1  UNL1       -0.1985
      7 N          62.7026   85.1735   11.5189 N.pl3   1  UNL1       -0.2825
      8 H          62.8024   84.2012   11.4005 H       1  UNL1        0.1551
      9 C          60.3327   87.5715    8.5384 C.ar    1  UNL1        0.0685
     10 C          60.1062   87.7670   10.0082 C.ar    1  UNL1        0.0115
     11 C          60.8962   86.9677   11.0017 C.ar    1  UNL1        0.0154
     12 C          61.9127   85.9728   10.5254 C.ar    1  UNL1        0.0505
     13 C          62.1392   85.7773    9.0556 C.ar    1  UNL1        0.0154
     14 C          61.3492   86.5767    8.0621 C.ar    1  UNL1        0.0115
     15 N          58.7528   89.1702    6.5515 N.1     1  UNL1       -0.1908
     16 C          59.5428   88.3709    7.5449 C.1     1  UNL1        0.1004
     17 N          63.5579   89.4752   14.3053 N.pl3   1  UNL1       -0.2943
     18 H          62.9756   89.7853   15.0360 H       1  UNL1        0.1537
     19 C          64.2347   90.4715   13.4113 C.ar    1  UNL1        0.1050
     20 C          65.4906   91.1548   13.8653 C.ar    1  UNL1        0.1557
     21 F          66.0695   90.8418   15.2131 F       1  UNL1       -0.2028
     22 C          66.1674   92.1512   12.9713 C.ar    1  UNL1        0.0311
     23 C          65.5884   92.4642   11.6234 C.ar    1  UNL1        0.0047
     24 C          64.3326   91.7810   11.1695 C.ar    1  UNL1        0.0311
     25 C          63.6557   90.7846   12.0634 C.ar    1  UNL1        0.1557
     26 F          62.4000   90.1013   11.6095 F       1  UNL1       -0.2028
     27 C          66.2652   93.4606   10.7295 C.ar    1  UNL1        0.0032
     28 C          67.3545   93.0152    9.7992 C.ar    1  UNL1        0.0207
     29 C          68.0313   94.0115    8.9053 C.ar    1  UNL1        0.0989
     30 N          67.6190   95.4533    8.9415 N.ar    1  UNL1       -0.2423
     31 C          66.5298   95.8987    9.8717 C.ar    1  UNL1        0.0989
     32 C          65.8529   94.9023   10.7657 C.ar    1  UNL1        0.0207
@<TRIPOS>BOND
     1    15    16    3
     2    16     9    1
     3     9    10   ar
     4    10    11   ar
     5    11    12   ar
     6    12     7    1
     7     7     1    1
     8     1     2   ar
     9     2     3   ar
    10     3     4   ar
    11     4     5   ar
    12     5    17    1
    13    17    19    1
    14    19    20   ar
    15    20    21    1
    16    20    22   ar
    17    22    23   ar
    18    23    27    1
    19    27    28   ar
    20    28    29   ar
    21    29    30   ar
    22    30    31   ar
    23    31    32   ar
    24    23    24   ar
    25    24    25   ar
    26    25    26    1
    27     5     6   ar
    28    12    13   ar
    29    13    14   ar
    30    14     9   ar
    31     6     1   ar
    32    25    19   ar
    33    32    27   ar
    34     7     8    1
    35    17    18    1
@<TRIPOS>MOLECULE
*****
 32 35 0 0 0
SMALL
GASTEIGER

@<TRIPOS>ATOM
      1 C          61.9489   86.9335   10.7563 C.ar    1  UNL1        0.2218
      2 N          60.5012   87.2121   10.4795 N.ar    1  UNL1       -0.2119
      3 C          59.8526   88.4411   11.0442 C.ar    1  UNL1        0.1047
      4 C          60.6517   89.3915   11.8857 C.ar    1  UNL1        0.0552
      5 C          62.0993   89.1130   12.1625 C.ar    1  UNL1        0.1367
      6 N          62.7480   87.8839   11.5978 N.ar    1  UNL1       -0.1985
      7 N          62.5974   85.7045   10.1916 N.pl3   1  UNL1       -0.2825
      8 H          62.9176   85.7005    9.2606 H       1  UNL1        0.1551
      9 C          63.0797   82.0360   12.7527 C.ar    1  UNL1        0.0685
     10 C          63.4293   81.9842   11.2950 C.ar    1  UNL1        0.0115
     11 C          63.2685   83.2071   10.4413 C.ar    1  UNL1        0.0154
     12 C          62.7582   84.4817   11.0453 C.ar    1  UNL1        0.0505
     13 C          62.4086   84.5334   12.5031 C.ar    1  UNL1        0.0154
     14 C          62.5694   83.3106   13.3568 C.ar    1  UNL1        0.0115
     15 N          63.4012   79.5903   14.4602 N.1     1  UNL1       -0.1908
     16 C          63.2405   80.8132   13.6065 C.1     1  UNL1        0.1004
     17 N          62.8984   90.0634   13.0040 N.pl3   1  UNL1       -0.2943
     18 H          62.8843   89.9835   13.9852 H       1  UNL1        0.1537
     19 C          63.7191   91.1356   12.3506 C.ar    1  UNL1        0.1050
     20 C          63.4970   91.4747   10.9064 C.ar    1  UNL1        0.1557
     21 F          62.4543   90.7417   10.1156 F       1  UNL1       -0.2028
     22 C          64.3177   92.5469   10.2530 C.ar    1  UNL1        0.0311
     23 C          65.3604   93.2800   11.0438 C.ar    1  UNL1        0.0047
     24 C          65.5825   92.9408   12.4880 C.ar    1  UNL1        0.0311
     25 C          64.7618   91.8686   13.1414 C.ar    1  UNL1        0.1557
     26 F          64.9839   91.5295   14.5856 F       1  UNL1       -0.2028
     27 C          66.1811   94.3521   10.3905 C.ar    1  UNL1        0.0032
     28 C          66.0180   95.7827   10.8112 C.ar    1  UNL1        0.0207
     29 C          66.8386   96.8548   10.1579 C.ar    1  UNL1        0.0989
     30 N          67.8224   96.4965    9.0837 N.ar    1  UNL1       -0.2423
     31 C          67.9856   95.0661    8.6629 C.ar    1  UNL1        0.0989
     32 C          67.1649   93.9938    9.3163 C.ar    1  UNL1        0.0207
@<TRIPOS>BOND
     1    15    16    3
     2    16     9    1
     3     9    10   ar
     4    10    11   ar
     5    11    12   ar
     6    12     7    1
     7     7     1    1
     8     1     2   ar
     9     2     3   ar
    10     3     4   ar
    11     4     5   ar
    12     5    17    1
    13    17    19    1
    14    19    20   ar
    15    20    21    1
    16    20    22   ar
    17    22    23   ar
    18    23    27    1
    19    27    28   ar
    20    28    29   ar
    21    29    30   ar
    22    30    31   ar
    23    31    32   ar
    24    23    24   ar
    25    24    25   ar
    26    25    26    1
    27     5     6   ar
    28    12    13   ar
    29    13    14   ar
    30    14     9   ar
    31     6     1   ar
    32    25    19   ar
    33    32    27   ar
    34     7     8    1
    35    17    18    1
