@<TRIPOS>MOLECULE
*****
 29 32 0 0 0
SMALL
GASTEIGER

@<TRIPOS>ATOM
      1 C          62.4557   90.2988   11.3539 C.3     1  UNL1        0.0858
      2 C          62.9119   91.0076   10.1132 C.3     1  UNL1        0.0228
      3 C          64.0592   91.9716   10.1790 C.3     1  UNL1        0.0287
      4 C          64.7504   92.2267   11.4856 C.ar    1  UNL1       -0.0123
      5 C          65.9009   93.1151   11.8558 C.ar    1  UNL1       -0.0034
      6 C          66.1558   92.9554   13.3253 C.ar    1  UNL1        0.0598
      7 C          67.1638   93.5812   14.2430 C.ar    1  UNL1        0.0172
      8 C          67.1789   93.2199   15.6987 C.ar    1  UNL1        0.0030
      9 C          66.1859   92.2328   16.2368 C.ar    1  UNL1        0.0190
     10 C          65.1779   91.6069   15.3191 C.ar    1  UNL1        0.0798
     11 N          65.1629   91.9682   13.8634 N.ar    1  UNL1       -0.3092
     12 C          64.2943   91.5178   12.7264 C.ar    1  UNL1        0.0385
     13 C          63.1470   90.5539   12.6605 C.3     1  UNL1        0.0615
     14 C          60.1769   89.4475   12.2665 C.3     1  UNL1        0.1149
     15 N          61.3083   89.3347   11.2882 N.3     1  UNL1       -0.1550
     16 S          61.2925   88.2580   10.2439 S.O2    1  UNL1        0.0633
     17 O          62.3708   87.5240   10.9843 O.2     1  UNL1       -0.1528
     18 O          60.2141   88.9920    9.5035 O.2     1  UNL1       -0.1528
     19 C          61.2766   87.1813    9.1997 C.ar    1  UNL1        0.1223
     20 C          62.5073   86.3608    8.9495 C.ar    1  UNL1        0.0222
     21 C          62.4913   85.2841    7.9053 C.ar    1  UNL1        0.0310
     22 C          61.2448   85.0279    7.1112 C.ar    1  UNL1        0.1402
     23 F          61.2289   83.9512    6.0670 F       1  UNL1       -0.2042
     24 C          60.0142   85.8483    7.3614 C.ar    1  UNL1        0.0310
     25 C          60.0301   86.9250    8.4056 C.ar    1  UNL1        0.0222
     26 C          66.6628   94.0068   10.9206 C.3     1  UNL1        0.0691
     27 C          67.6395   93.4143    9.9484 C.2     1  UNL1        0.0548
     28 O          67.7472   93.9715    8.5599 O.co2   1  UNL1       -0.5488
     29 O          68.5084   92.2647   10.3647 O.co2   1  UNL1       -0.5488
@<TRIPOS>UNITY_ATOM_ATTR
28 1
charge -1
@<TRIPOS>BOND
     1    14    15    1
     2     1    15    1
     3     1     2    1
     4     2     3    1
     5     3     4    1
     6     4     5   ar
     7     5    26    1
     8    26    27    1
     9    27    28   ar
    10    27    29   ar
    11     5     6   ar
    12     6     7   ar
    13     7     8   ar
    14     8     9   ar
    15     9    10   ar
    16    10    11   ar
    17    11    12   ar
    18    12    13    1
    19    15    16    1
    20    16    17    2
    21    16    18    2
    22    16    19    1
    23    19    20   ar
    24    20    21   ar
    25    21    22   ar
    26    22    23    1
    27    22    24   ar
    28    24    25   ar
    29    13     1    1
    30    25    19   ar
    31    12     4   ar
    32    11     6   ar
@<TRIPOS>MOLECULE
*****
 29 32 0 0 0
SMALL
GASTEIGER

@<TRIPOS>ATOM
      1 C          62.4781   89.6385   11.3482 C.3     1  UNL1        0.0858
      2 C          62.6771   90.4046   10.0740 C.3     1  UNL1        0.0228
      3 C          63.6378   91.5558   10.0333 C.3     1  UNL1        0.0287
      4 C          64.3995   91.9410   11.2667 C.ar    1  UNL1       -0.0123
      5 C          65.4067   93.0214   11.5279 C.ar    1  UNL1       -0.0034
      6 C          65.8303   92.9231   12.9635 C.ar    1  UNL1        0.0598
      7 C          66.7985   93.7252   13.7815 C.ar    1  UNL1        0.0172
      8 C          67.0212   93.3862   15.2256 C.ar    1  UNL1        0.0030
      9 C          66.2757   92.2451   15.8517 C.ar    1  UNL1        0.0190
     10 C          65.3075   91.4429   15.0337 C.ar    1  UNL1        0.0798
     11 N          65.0848   91.7819   13.5896 N.ar    1  UNL1       -0.3092
     12 C          64.2005   91.1750   12.5409 C.ar    1  UNL1        0.0385
     13 C          63.2399   90.0238   12.5817 C.3     1  UNL1        0.0615
     14 C          60.0647   88.7323   11.6710 C.3     1  UNL1        0.1149
     15 N          61.5174   88.4872   11.3890 N.3     1  UNL1       -0.1550
     16 S          62.0095   87.0909   11.1478 S.O2    1  UNL1        0.0633
     17 O          62.8550   87.1753   12.3838 O.2     1  UNL1       -0.1528
     18 O          61.1640   87.0066    9.9116 O.2     1  UNL1       -0.1528
     19 C          62.5017   85.6946   10.9064 C.ar    1  UNL1        0.1223
     20 C          62.5397   84.7073   12.0351 C.ar    1  UNL1        0.0222
     21 C          63.0318   83.3110   11.7938 C.ar    1  UNL1        0.0310
     22 C          63.4858   82.9021   10.4238 C.ar    1  UNL1        0.1402
     23 F          63.9780   81.5058   10.1825 F       1  UNL1       -0.2042
     24 C          63.4478   83.8895    9.2953 C.ar    1  UNL1        0.0310
     25 C          62.9557   85.2857    9.5366 C.ar    1  UNL1        0.0222
     26 C          65.9033   94.0241   10.5289 C.3     1  UNL1        0.0691
     27 C          67.1578   93.7516    9.7528 C.2     1  UNL1        0.0548
     28 O          67.4132   94.4731    8.4628 O.co2   1  UNL1       -0.5488
     29 O          68.1568   92.7578   10.2669 O.co2   1  UNL1       -0.5488
@<TRIPOS>UNITY_ATOM_ATTR
28 1
charge -1
@<TRIPOS>BOND
     1    14    15    1
     2     1    15    1
     3     1     2    1
     4     2     3    1
     5     3     4    1
     6     4     5   ar
     7     5    26    1
     8    26    27    1
     9    27    28   ar
    10    27    29   ar
    11     5     6   ar
    12     6     7   ar
    13     7     8   ar
    14     8     9   ar
    15     9    10   ar
    16    10    11   ar
    17    11    12   ar
    18    12    13    1
    19    15    16    1
    20    16    17    2
    21    16    18    2
    22    16    19    1
    23    19    20   ar
    24    20    21   ar
    25    21    22   ar
    26    22    23    1
    27    22    24   ar
    28    24    25   ar
    29    13     1    1
    30    25    19   ar
    31    12     4   ar
    32    11     6   ar
@<TRIPOS>MOLECULE
*****
 29 32 0 0 0
SMALL
GASTEIGER

@<TRIPOS>ATOM
      1 C          62.0941   89.6948   12.2645 C.3     1  UNL1        0.0858
      2 C          62.6225   89.2523   13.5967 C.3     1  UNL1        0.0228
      3 C          63.8637   89.8806   14.1575 C.3     1  UNL1        0.0287
      4 C          64.5766   90.9515   13.3860 C.ar    1  UNL1       -0.0123
      5 C          65.8128   91.7478   13.6820 C.ar    1  UNL1       -0.0034
      6 C          66.0484   92.6825   12.5327 C.ar    1  UNL1        0.0598
      7 C          67.1151   93.7044   12.2725 C.ar    1  UNL1        0.0172
      8 C          67.0912   94.5076   11.0060 C.ar    1  UNL1        0.0030
      9 C          66.0006   94.2890    9.9997 C.ar    1  UNL1        0.0190
     10 C          64.9338   93.2671   10.2599 C.ar    1  UNL1        0.0798
     11 N          64.9578   92.4638   11.5264 N.ar    1  UNL1       -0.3092
     12 C          64.0481   91.3941   12.0538 C.ar    1  UNL1        0.0385
     13 C          62.8069   90.7657   11.4930 C.3     1  UNL1        0.0615
     14 C          59.5112   89.4140   12.2775 C.3     1  UNL1        0.1149
     15 N          60.8528   89.0665   11.7036 N.3     1  UNL1       -0.1550
     16 S          60.9532   88.0906   10.5689 S.O2    1  UNL1        0.0633
     17 O          60.4867   89.1507    9.6158 O.2     1  UNL1       -0.1528
     18 O          61.4198   87.0305   11.5221 O.2     1  UNL1       -0.1528
     19 C          61.0537   87.1147    9.4342 C.ar    1  UNL1        0.1223
     20 C          59.8749   86.8856    8.5353 C.ar    1  UNL1        0.0222
     21 C          59.9754   85.9097    7.4006 C.ar    1  UNL1        0.0310
     22 C          61.2547   85.1628    7.1650 C.ar    1  UNL1        0.1402
     23 F          61.3552   84.1869    6.0303 F       1  UNL1       -0.2042
     24 C          62.4335   85.3918    8.0639 C.ar    1  UNL1        0.0310
     25 C          62.3330   86.3677    9.1985 C.ar    1  UNL1        0.0222
     26 C          66.6640   91.6301   14.9115 C.3     1  UNL1        0.0691
     27 C          66.5986   92.6878   15.9731 C.2     1  UNL1        0.0548
     28 O          65.4363   92.7287   16.9205 O.co2   1  UNL1       -0.5488
     29 O          67.6954   93.7047   16.0874 O.co2   1  UNL1       -0.5488
@<TRIPOS>UNITY_ATOM_ATTR
28 1
charge -1
@<TRIPOS>BOND
     1    14    15    1
     2     1    15    1
     3     1     2    1
     4     2     3    1
     5     3     4    1
     6     4     5   ar
     7     5    26    1
     8    26    27    1
     9    27    28   ar
    10    27    29   ar
    11     5     6   ar
    12     6     7   ar
    13     7     8   ar
    14     8     9   ar
    15     9    10   ar
    16    10    11   ar
    17    11    12   ar
    18    12    13    1
    19    15    16    1
    20    16    17    2
    21    16    18    2
    22    16    19    1
    23    19    20   ar
    24    20    21   ar
    25    21    22   ar
    26    22    23    1
    27    22    24   ar
    28    24    25   ar
    29    13     1    1
    30    25    19   ar
    31    12     4   ar
    32    11     6   ar
@<TRIPOS>MOLECULE
*****
 29 32 0 0 0
SMALL
GASTEIGER

@<TRIPOS>ATOM
      1 C          64.4298   89.7242   13.8482 C.3     1  UNL1        0.0858
      2 C          64.7734   88.5650   14.7360 C.3     1  UNL1        0.0228
      3 C          64.3070   87.1844   14.3809 C.3     1  UNL1        0.0287
      4 C          63.4969   86.9629   13.1380 C.ar    1  UNL1       -0.0123
      5 C          62.9022   85.7250   12.5349 C.ar    1  UNL1       -0.0034
      6 C          62.1910   86.1191   11.2743 C.ar    1  UNL1        0.0598
      7 C          61.4221   85.3203   10.2640 C.ar    1  UNL1        0.0172
      8 C          60.8085   86.0031    9.0778 C.ar    1  UNL1        0.0030
      9 C          60.9637   87.4846    8.9019 C.ar    1  UNL1        0.0190
     10 C          61.7326   88.2834    9.9122 C.ar    1  UNL1        0.0798
     11 N          62.3462   87.6006   11.0984 N.ar    1  UNL1       -0.3092
     12 C          63.1533   88.1221   12.2502 C.ar    1  UNL1        0.0385
     13 C          63.6198   89.5028   12.6053 C.3     1  UNL1        0.0615
     14 C          64.7594   91.6039   15.6113 C.3     1  UNL1        0.1149
     15 N          64.8963   91.1050   14.2034 N.3     1  UNL1       -0.1550
     16 S          65.4996   91.9867   13.1504 S.O2    1  UNL1        0.0633
     17 O          64.1285   92.3093   12.6349 O.2     1  UNL1       -0.1528
     18 O          66.8708   91.6640   13.6659 O.2     1  UNL1       -0.1528
     19 C          66.1029   92.8683   12.0975 C.ar    1  UNL1        0.1223
     20 C          66.8030   92.2583   10.9193 C.ar    1  UNL1        0.0222
     21 C          67.4064   93.1400    9.8664 C.ar    1  UNL1        0.0310
     22 C          67.3097   94.6316    9.9917 C.ar    1  UNL1        0.1402
     23 F          67.9130   95.5133    8.9387 F       1  UNL1       -0.2042
     24 C          66.6096   95.2416   11.1697 C.ar    1  UNL1        0.0310
     25 C          66.0063   94.3600   12.2226 C.ar    1  UNL1        0.0222
     26 C          63.0012   84.3366   13.0941 C.3     1  UNL1        0.0691
     27 C          62.7157   84.0907   14.5461 C.2     1  UNL1        0.0548
     28 O          63.4727   83.0310   15.2902 O.co2   1  UNL1       -0.5488
     29 O          61.6733   84.9047   15.2538 O.co2   1  UNL1       -0.5488
@<TRIPOS>UNITY_ATOM_ATTR
28 1
charge -1
@<TRIPOS>BOND
     1    14    15    1
     2     1    15    1
     3     1     2    1
     4     2     3    1
     5     3     4    1
     6     4     5   ar
     7     5    26    1
     8    26    27    1
     9    27    28   ar
    10    27    29   ar
    11     5     6   ar
    12     6     7   ar
    13     7     8   ar
    14     8     9   ar
    15     9    10   ar
    16    10    11   ar
    17    11    12   ar
    18    12    13    1
    19    15    16    1
    20    16    17    2
    21    16    18    2
    22    16    19    1
    23    19    20   ar
    24    20    21   ar
    25    21    22   ar
    26    22    23    1
    27    22    24   ar
    28    24    25   ar
    29    13     1    1
    30    25    19   ar
    31    12     4   ar
    32    11     6   ar
@<TRIPOS>MOLECULE
*****
 29 32 0 0 0
SMALL
GASTEIGER

@<TRIPOS>ATOM
      1 C          63.3463   85.8720   12.9853 C.3     1  UNL1        0.0858
      2 C          63.8673   87.1891   13.4792 C.3     1  UNL1        0.0228
      3 C          63.4696   88.4597   12.7883 C.3     1  UNL1        0.0287
      4 C          62.5508   88.4132   11.6035 C.ar    1  UNL1       -0.0123
      5 C          61.9888   89.4924   10.7262 C.ar    1  UNL1       -0.0034
      6 C          61.1205   88.8423    9.6902 C.ar    1  UNL1        0.0598
      7 C          60.3101   89.4076    8.5616 C.ar    1  UNL1        0.0172
      8 C          59.5249   88.4919    7.6700 C.ar    1  UNL1        0.0030
      9 C          59.5502   87.0109    7.9070 C.ar    1  UNL1        0.0190
     10 C          60.3606   86.4457    9.0356 C.ar    1  UNL1        0.0798
     11 N          61.1457   87.3614    9.9271 N.ar    1  UNL1       -0.3092
     12 C          62.0297   87.0962   11.1097 C.ar    1  UNL1        0.0385
     13 C          62.4274   85.8256   11.8005 C.3     1  UNL1        0.0615
     14 C          64.3953   84.6540   15.0264 C.3     1  UNL1        0.1149
     15 N          63.7440   84.6013   13.6762 N.3     1  UNL1       -0.1550
     16 S          63.4903   83.2782   13.0168 S.O2    1  UNL1        0.0633
     17 O          62.3279   83.0433   13.9350 O.2     1  UNL1       -0.1528
     18 O          64.6529   83.5131   12.0984 O.2     1  UNL1       -0.1528
     19 C          63.2368   81.9550   12.3573 C.ar    1  UNL1        0.1223
     20 C          63.4239   81.8070   10.8763 C.ar    1  UNL1        0.0222
     21 C          63.1704   80.4838   10.2168 C.ar    1  UNL1        0.0310
     22 C          62.7296   79.3087   11.0384 C.ar    1  UNL1        0.1402
     23 F          62.4760   77.9855   10.3789 F       1  UNL1       -0.2042
     24 C          62.5425   79.4567   12.5192 C.ar    1  UNL1        0.0310
     25 C          62.7960   80.7798   13.1787 C.ar    1  UNL1        0.0222
     26 C          62.2495   90.9634   10.8612 C.3     1  UNL1        0.0691
     27 C          63.5490   91.4453   11.4350 C.2     1  UNL1        0.0548
     28 O          64.6913   91.7843   10.5239 O.co2   1  UNL1       -0.5488
     29 O          63.7062   91.5881   12.9200 O.co2   1  UNL1       -0.5488
@<TRIPOS>UNITY_ATOM_ATTR
28 1
charge -1
@<TRIPOS>BOND
     1    14    15    1
     2     1    15    1
     3     1     2    1
     4     2     3    1
     5     3     4    1
     6     4     5   ar
     7     5    26    1
     8    26    27    1
     9    27    28   ar
    10    27    29   ar
    11     5     6   ar
    12     6     7   ar
    13     7     8   ar
    14     8     9   ar
    15     9    10   ar
    16    10    11   ar
    17    11    12   ar
    18    12    13    1
    19    15    16    1
    20    16    17    2
    21    16    18    2
    22    16    19    1
    23    19    20   ar
    24    20    21   ar
    25    21    22   ar
    26    22    23    1
    27    22    24   ar
    28    24    25   ar
    29    13     1    1
    30    25    19   ar
    31    12     4   ar
    32    11     6   ar
@<TRIPOS>MOLECULE
*****
 29 32 0 0 0
SMALL
GASTEIGER

@<TRIPOS>ATOM
      1 C          64.0186   89.7951   13.0882 C.3     1  UNL1        0.0858
      2 C          63.1732   89.8671   11.8513 C.3     1  UNL1        0.0228
      3 C          62.5528   88.6206   11.2933 C.3     1  UNL1        0.0287
      4 C          62.7779   87.3021   11.9722 C.ar    1  UNL1       -0.0123
      5 C          62.2996   85.9160   11.6564 C.ar    1  UNL1       -0.0034
      6 C          62.8494   84.9873   12.6981 C.ar    1  UNL1        0.0598
      7 C          62.7109   83.5070   12.8968 C.ar    1  UNL1        0.0172
      8 C          63.3904   82.8389   14.0552 C.ar    1  UNL1        0.0030
      9 C          64.2085   83.6512   15.0149 C.ar    1  UNL1        0.0190
     10 C          64.3471   85.1314   14.8162 C.ar    1  UNL1        0.0798
     11 N          63.6676   85.7995   13.6578 N.ar    1  UNL1       -0.3092
     12 C          63.6233   87.2301   13.2092 C.ar    1  UNL1        0.0385
     13 C          64.2437   88.4766   13.7672 C.3     1  UNL1        0.0615
     14 C          64.6022   91.3013   15.1232 C.3     1  UNL1        0.1149
     15 N          64.6390   91.0417   13.6463 N.3     1  UNL1       -0.1550
     16 S          65.2961   92.0285   12.7274 S.O2    1  UNL1        0.0633
     17 O          66.6381   91.6497   13.2800 O.2     1  UNL1       -0.1528
     18 O          63.9541   92.4073   12.1747 O.2     1  UNL1       -0.1528
     19 C          65.9531   93.0153   11.8084 C.ar    1  UNL1        0.1223
     20 C          66.6370   92.5386   10.5613 C.ar    1  UNL1        0.0222
     21 C          67.2940   93.5254    9.6423 C.ar    1  UNL1        0.0310
     22 C          67.2671   94.9888    9.9704 C.ar    1  UNL1        0.1402
     23 F          67.9242   95.9757    9.0514 F       1  UNL1       -0.2042
     24 C          66.5833   95.4655   11.2175 C.ar    1  UNL1        0.0310
     25 C          65.9263   94.4787   12.1364 C.ar    1  UNL1        0.0222
     26 C          61.4251   85.5268   10.5015 C.3     1  UNL1        0.0691
     27 C          61.7912   85.9463    9.1086 C.2     1  UNL1        0.0548
     28 O          60.8153   86.7274    8.2796 O.co2   1  UNL1       -0.5488
     29 O          63.1334   85.5847    8.5449 O.co2   1  UNL1       -0.5488
@<TRIPOS>UNITY_ATOM_ATTR
28 1
charge -1
@<TRIPOS>BOND
     1    14    15    1
     2     1    15    1
     3     1     2    1
     4     2     3    1
     5     3     4    1
     6     4     5   ar
     7     5    26    1
     8    26    27    1
     9    27    28   ar
    10    27    29   ar
    11     5     6   ar
    12     6     7   ar
    13     7     8   ar
    14     8     9   ar
    15     9    10   ar
    16    10    11   ar
    17    11    12   ar
    18    12    13    1
    19    15    16    1
    20    16    17    2
    21    16    18    2
    22    16    19    1
    23    19    20   ar
    24    20    21   ar
    25    21    22   ar
    26    22    23    1
    27    22    24   ar
    28    24    25   ar
    29    13     1    1
    30    25    19   ar
    31    12     4   ar
    32    11     6   ar
@<TRIPOS>MOLECULE
*****
 29 32 0 0 0
SMALL
GASTEIGER

@<TRIPOS>ATOM
      1 C          61.9266   88.4803   11.1951 C.3     1  UNL1        0.0858
      2 C          61.7164   88.6138    9.7159 C.3     1  UNL1        0.0228
      3 C          62.0004   87.4523    8.8102 C.3     1  UNL1        0.0287
      4 C          62.4945   86.1573    9.3837 C.ar    1  UNL1       -0.0123
      5 C          62.8568   84.8498    8.7442 C.ar    1  UNL1       -0.0034
      6 C          63.2909   83.9081    9.8281 C.ar    1  UNL1        0.0598
      7 C          63.7596   82.4837    9.7920 C.ar    1  UNL1        0.0172
      8 C          64.1343   81.7850   11.0652 C.ar    1  UNL1        0.0030
      9 C          64.0403   82.5106   12.3747 C.ar    1  UNL1        0.0190
     10 C          63.5716   83.9350   12.4108 C.ar    1  UNL1        0.0798
     11 N          63.1969   84.6338   11.1376 N.ar    1  UNL1       -0.3092
     12 C          62.7047   86.0238   10.8629 C.ar    1  UNL1        0.0385
     13 C          62.4207   87.1853   11.7686 C.3     1  UNL1        0.0615
     14 C          60.2260   90.0580   12.3651 C.3     1  UNL1        0.1149
     15 N          61.6426   89.6418   12.1009 N.3     1  UNL1       -0.1550
     16 S          62.7754   90.3870   12.7423 S.O2    1  UNL1        0.0633
     17 O          63.1487   90.9665   11.4101 O.2     1  UNL1       -0.1528
     18 O          62.4021   89.8076   14.0745 O.2     1  UNL1       -0.1528
     19 C          63.9082   91.1322   13.3838 C.ar    1  UNL1        0.1223
     20 C          64.8037   91.9992   12.5492 C.ar    1  UNL1        0.0222
     21 C          65.9365   92.7444   13.1907 C.ar    1  UNL1        0.0310
     22 C          66.1737   92.6225   14.6668 C.ar    1  UNL1        0.1402
     23 F          67.3065   93.3677   15.3083 F       1  UNL1       -0.2042
     24 C          65.2783   91.7555   15.5013 C.ar    1  UNL1        0.0310
     25 C          64.1456   91.0104   14.8599 C.ar    1  UNL1        0.0222
     26 C          62.7958   84.5384    7.2781 C.3     1  UNL1        0.0691
     27 C          61.4868   84.6136    6.5493 C.2     1  UNL1        0.0548
     28 O          61.3761   84.0847    5.1500 O.co2   1  UNL1       -0.5488
     29 O          60.2887   85.2177    7.2197 O.co2   1  UNL1       -0.5488
@<TRIPOS>UNITY_ATOM_ATTR
28 1
charge -1
@<TRIPOS>BOND
     1    14    15    1
     2     1    15    1
     3     1     2    1
     4     2     3    1
     5     3     4    1
     6     4     5   ar
     7     5    26    1
     8    26    27    1
     9    27    28   ar
    10    27    29   ar
    11     5     6   ar
    12     6     7   ar
    13     7     8   ar
    14     8     9   ar
    15     9    10   ar
    16    10    11   ar
    17    11    12   ar
    18    12    13    1
    19    15    16    1
    20    16    17    2
    21    16    18    2
    22    16    19    1
    23    19    20   ar
    24    20    21   ar
    25    21    22   ar
    26    22    23    1
    27    22    24   ar
    28    24    25   ar
    29    13     1    1
    30    25    19   ar
    31    12     4   ar
    32    11     6   ar
@<TRIPOS>MOLECULE
*****
 29 32 0 0 0
SMALL
GASTEIGER

@<TRIPOS>ATOM
      1 C          63.8451   85.9783   14.0812 C.3     1  UNL1        0.0858
      2 C          64.5105   87.1454   14.7485 C.3     1  UNL1        0.0228
      3 C          64.3385   88.5268   14.1899 C.3     1  UNL1        0.0287
      4 C          63.5011   88.7412   12.9640 C.ar    1  UNL1       -0.0123
      5 C          63.1525   89.9780   12.1903 C.ar    1  UNL1       -0.0034
      6 C          62.2716   89.5755   11.0449 C.ar    1  UNL1        0.0598
      7 C          61.6225   90.3698    9.9505 C.ar    1  UNL1        0.0172
      8 C          60.7776   89.6784    8.9219 C.ar    1  UNL1        0.0030
      9 C          60.5818   88.1927    8.9877 C.ar    1  UNL1        0.0190
     10 C          61.2309   87.3983   10.0820 C.ar    1  UNL1        0.0798
     11 N          62.0758   88.0897   11.1107 N.ar    1  UNL1       -0.3092
     12 C          62.8357   87.5742   12.2967 C.ar    1  UNL1        0.0385
     13 C          63.0077   86.1927   12.8553 C.3     1  UNL1        0.0615
     14 C          64.4961   84.4120   16.0492 C.3     1  UNL1        0.1149
     15 N          64.0171   84.5968   14.6398 N.3     1  UNL1       -0.1550
     16 S          63.7101   83.4003   13.7889 S.O2    1  UNL1        0.0633
     17 O          62.4570   83.1607   14.5778 O.2     1  UNL1       -0.1528
     18 O          64.9631   83.6399   13.0000 O.2     1  UNL1       -0.1528
     19 C          63.4031   82.2038   12.9380 C.ar    1  UNL1        0.1223
     20 C          63.5906   82.2728   11.4513 C.ar    1  UNL1        0.0222
     21 C          63.2836   81.0762   10.6003 C.ar    1  UNL1        0.0310
     22 C          62.7892   79.8108   11.2361 C.ar    1  UNL1        0.1402
     23 F          62.4822   78.6143   10.3851 F       1  UNL1       -0.2042
     24 C          62.6017   79.7418   12.7227 C.ar    1  UNL1        0.0310
     25 C          62.9086   80.9383   13.5736 C.ar    1  UNL1        0.0222
     26 C          63.6052   91.3727   12.5065 C.3     1  UNL1        0.0691
     27 C          64.9986   91.8059   12.1587 C.2     1  UNL1        0.0548
     28 O          65.3064   92.3038   10.7776 O.co2   1  UNL1       -0.5488
     29 O          66.0841   91.7412   13.1919 O.co2   1  UNL1       -0.5488
@<TRIPOS>UNITY_ATOM_ATTR
28 1
charge -1
@<TRIPOS>BOND
     1    14    15    1
     2     1    15    1
     3     1     2    1
     4     2     3    1
     5     3     4    1
     6     4     5   ar
     7     5    26    1
     8    26    27    1
     9    27    28   ar
    10    27    29   ar
    11     5     6   ar
    12     6     7   ar
    13     7     8   ar
    14     8     9   ar
    15     9    10   ar
    16    10    11   ar
    17    11    12   ar
    18    12    13    1
    19    15    16    1
    20    16    17    2
    21    16    18    2
    22    16    19    1
    23    19    20   ar
    24    20    21   ar
    25    21    22   ar
    26    22    23    1
    27    22    24   ar
    28    24    25   ar
    29    13     1    1
    30    25    19   ar
    31    12     4   ar
    32    11     6   ar
@<TRIPOS>MOLECULE
*****
 29 32 0 0 0
SMALL
GASTEIGER

@<TRIPOS>ATOM
      1 C          63.8342   87.6580   14.4763 C.3     1  UNL1        0.0858
      2 C          63.2801   87.8540   13.0962 C.3     1  UNL1        0.0228
      3 C          63.5697   89.1193   12.3445 C.3     1  UNL1        0.0287
      4 C          64.4132   90.1887   12.9729 C.ar    1  UNL1       -0.0123
      5 C          64.8642   91.5312   12.4788 C.ar    1  UNL1       -0.0034
      6 C          65.6970   92.1650   13.5535 C.ar    1  UNL1        0.0598
      7 C          66.4055   93.4850   13.6269 C.ar    1  UNL1        0.0172
      8 C          67.1777   93.8542   14.8587 C.ar    1  UNL1        0.0030
      9 C          67.2414   92.9033   16.0171 C.ar    1  UNL1        0.0190
     10 C          66.5329   91.5833   15.9436 C.ar    1  UNL1        0.0798
     11 N          65.7607   91.2141   14.7118 N.ar    1  UNL1       -0.3092
     12 C          64.9673   89.9927   14.3530 C.ar    1  UNL1        0.0385
     13 C          64.6777   88.7274   15.1047 C.3     1  UNL1        0.0615
     14 C          63.4010   86.4232   16.7208 C.3     1  UNL1        0.1149
     15 N          63.5446   86.3926   15.2281 N.3     1  UNL1       -0.1550
     16 S          63.3988   85.0967   14.4869 S.O2    1  UNL1        0.0633
     17 O          64.8487   85.1508   14.1066 O.2     1  UNL1       -0.1528
     18 O          61.9488   85.0425   14.8671 O.2     1  UNL1       -0.1528
     19 C          63.2528   83.8007   13.7457 C.ar    1  UNL1        0.1223
     20 C          63.9142   83.6213   12.4113 C.ar    1  UNL1        0.0222
     21 C          63.7683   82.3254   11.6702 C.ar    1  UNL1        0.0310
     22 C          62.9609   81.2090   12.2634 C.ar    1  UNL1        0.1402
     23 F          62.8150   79.9131   11.5222 F       1  UNL1       -0.2042
     24 C          62.2996   81.3885   13.5977 C.ar    1  UNL1        0.0310
     25 C          62.4455   82.6843   14.3388 C.ar    1  UNL1        0.0222
     26 C          64.5395   92.1342   11.1443 C.3     1  UNL1        0.0691
     27 C          65.5066   93.0773   10.4920 C.2     1  UNL1        0.0548
     28 O          65.1831   94.5391   10.4010 O.co2   1  UNL1       -0.5488
     29 O          66.7973   92.5585    9.9308 O.co2   1  UNL1       -0.5488
@<TRIPOS>UNITY_ATOM_ATTR
28 1
charge -1
@<TRIPOS>BOND
     1    14    15    1
     2     1    15    1
     3     1     2    1
     4     2     3    1
     5     3     4    1
     6     4     5   ar
     7     5    26    1
     8    26    27    1
     9    27    28   ar
    10    27    29   ar
    11     5     6   ar
    12     6     7   ar
    13     7     8   ar
    14     8     9   ar
    15     9    10   ar
    16    10    11   ar
    17    11    12   ar
    18    12    13    1
    19    15    16    1
    20    16    17    2
    21    16    18    2
    22    16    19    1
    23    19    20   ar
    24    20    21   ar
    25    21    22   ar
    26    22    23    1
    27    22    24   ar
    28    24    25   ar
    29    13     1    1
    30    25    19   ar
    31    12     4   ar
    32    11     6   ar
