@<TRIPOS>MOLECULE
*****
 29 32 0 0 0
SMALL
GASTEIGER

@<TRIPOS>ATOM
      1 C          63.1112   89.5597   11.8730 C.2     1  UNL1        0.3298
      2 C          63.7342   89.9555   13.1788 C.2     1  UNL1        0.1070
      3 C          64.5698   91.1982   13.2650 C.2     1  UNL1        0.1012
      4 N          65.3050   91.8362   14.4062 N.2     1  UNL1       -0.1516
      5 N          65.9720   93.0774   13.8919 N.2     1  UNL1       -0.1517
      6 C          65.6490   93.2065   12.4328 C.2     1  UNL1        0.0968
      7 C          64.7824   92.0451   12.0453 C.3     1  UNL1        0.1533
      8 C          64.1594   91.6493   10.7395 C.2     1  UNL1        0.2205
      9 N          63.3238   90.4066   10.6533 N.2     1  UNL1       -0.0400
     10 N          61.9009   85.8126   12.3683 N.am    1  UNL1       -0.2666
     11 C          62.7366   87.0554   12.4545 C.2     1  UNL1        0.3927
     12 O          64.0332   87.0364   13.2083 O.2     1  UNL1       -0.2238
     13 N          62.2756   88.3170   11.7868 N.am    1  UNL1       -0.1531
     14 H          61.0499   85.8251   11.8735 H       1  UNL1        0.1533
     15 H          61.4245   88.3294   11.2920 H       1  UNL1        0.3030
     16 C          62.4218   84.4734   14.5327 C.3     1  UNL1        0.0263
     17 C          62.3619   84.5511   13.0359 C.3     1  UNL1        0.0977
     18 C          62.7631   83.3671   12.2068 C.ar    1  UNL1       -0.0044
     19 C          62.3472   81.9865   12.6202 C.ar    1  UNL1       -0.0027
     20 C          62.7483   80.8026   11.7911 C.ar    1  UNL1       -0.0003
     21 C          63.5653   80.9993   10.5486 C.ar    1  UNL1       -0.0000
     22 C          63.9812   82.3799   10.1353 C.ar    1  UNL1       -0.0003
     23 C          63.5801   83.5638   10.9644 C.ar    1  UNL1       -0.0027
     24 C          66.1115   94.3042   11.5211 C.ar    1  UNL1        0.0557
     25 C          66.1584   95.7659   11.8543 C.ar    1  UNL1        0.1229
     26 N          66.6841   96.4981   10.6553 N.ar    1  UNL1       -0.1676
     27 N          66.9621   95.4888    9.5811 N.ar    1  UNL1       -0.2473
     28 C          67.4997   95.7836    8.2120 C.3     1  UNL1        0.1538
     29 C          66.6082   94.1329   10.1162 C.ar    1  UNL1        0.0979
@<TRIPOS>BOND
     1    17    16    1
     2    17    10    1
     3    10    11   am
     4    11    12    2
     5    11    13   am
     6    13     1    1
     7     1     2    2
     8     2     3    1
     9     3     4    2
    10     4     5    1
    11     5     6    2
    12     6    24    1
    13    24    25   ar
    14    25    26   ar
    15    26    27   ar
    16    27    28    1
    17    27    29   ar
    18     6     7    1
    19     7     8    1
    20     8     9    2
    21    17    18    1
    22    18    19   ar
    23    19    20   ar
    24    20    21   ar
    25    21    22   ar
    26    22    23   ar
    27     9     1    1
    28    23    18   ar
    29     7     3    1
    30    29    24   ar
    31    10    14    1
    32    13    15    1
@<TRIPOS>MOLECULE
*****
 29 32 0 0 0
SMALL
GASTEIGER

@<TRIPOS>ATOM
      1 C          63.5681   86.7082   15.7602 C.2     1  UNL1        0.3298
      2 C          63.0685   87.7771   16.6863 C.2     1  UNL1        0.1070
      3 C          63.3730   89.2181   16.4021 C.2     1  UNL1        0.1012
      4 N          63.0174   90.4813   17.1286 N.2     1  UNL1       -0.1516
      5 N          63.6017   91.6341   16.3672 N.2     1  UNL1       -0.1517
      6 C          64.3184   91.0833   15.1702 C.2     1  UNL1        0.0968
      7 C          64.1771   89.5901   15.1917 C.3     1  UNL1        0.1533
      8 C          64.6766   88.5212   14.2656 C.2     1  UNL1        0.2205
      9 N          64.3722   87.0802   14.5498 N.2     1  UNL1       -0.0400
     10 N          62.5264   82.9174   15.2163 N.am    1  UNL1       -0.2666
     11 C          62.8309   84.3585   14.9321 C.2     1  UNL1        0.3927
     12 O          62.7027   84.8908   13.5357 O.2     1  UNL1       -0.2238
     13 N          63.2636   85.2671   16.0444 N.am    1  UNL1       -0.1531
     14 H          62.6105   82.5680   16.1329 H       1  UNL1        0.1533
     15 H          63.3477   84.9177   16.9609 H       1  UNL1        0.3030
     16 C          60.9301   81.0831   14.3016 C.3     1  UNL1        0.0263
     17 C          62.0937   82.0088   14.1041 C.3     1  UNL1        0.0977
     18 C          62.8247   82.0258   12.7944 C.ar    1  UNL1       -0.0044
     19 C          63.9263   83.0173   12.5631 C.ar    1  UNL1       -0.0027
     20 C          64.6572   83.0343   11.2534 C.ar    1  UNL1       -0.0003
     21 C          64.2866   82.0599   10.1749 C.ar    1  UNL1       -0.0000
     22 C          63.1850   81.0685   10.4062 C.ar    1  UNL1       -0.0003
     23 C          62.4540   81.0514   11.7159 C.ar    1  UNL1       -0.0027
     24 C          65.0483   91.8849   14.1336 C.ar    1  UNL1        0.0557
     25 C          66.1613   92.8565   14.3928 C.ar    1  UNL1        0.1229
     26 N          66.5943   93.4278   13.0751 N.ar    1  UNL1       -0.1676
     27 N          65.7488   92.8092   12.0016 N.ar    1  UNL1       -0.2473
     28 C          65.8424   93.0942   10.5318 C.3     1  UNL1        0.1538
     29 C          64.7934   91.8557   12.6557 C.ar    1  UNL1        0.0979
@<TRIPOS>BOND
     1    17    16    1
     2    17    10    1
     3    10    11   am
     4    11    12    2
     5    11    13   am
     6    13     1    1
     7     1     2    2
     8     2     3    1
     9     3     4    2
    10     4     5    1
    11     5     6    2
    12     6    24    1
    13    24    25   ar
    14    25    26   ar
    15    26    27   ar
    16    27    28    1
    17    27    29   ar
    18     6     7    1
    19     7     8    1
    20     8     9    2
    21    17    18    1
    22    18    19   ar
    23    19    20   ar
    24    20    21   ar
    25    21    22   ar
    26    22    23   ar
    27     9     1    1
    28    23    18   ar
    29     7     3    1
    30    29    24   ar
    31    10    14    1
    32    13    15    1
@<TRIPOS>MOLECULE
*****
 29 32 0 0 0
SMALL
GASTEIGER

@<TRIPOS>ATOM
      1 C          62.6790   91.0240   10.8451 C.2     1  UNL1        0.3298
      2 C          63.6587   91.8829   10.1018 C.2     1  UNL1        0.1070
      3 C          64.8588   92.4371   10.8106 C.2     1  UNL1        0.1012
      4 N          65.9877   93.3071   10.3429 N.2     1  UNL1       -0.1516
      5 N          66.9058   93.5403   11.5060 N.2     1  UNL1       -0.1517
      6 C          66.3444   92.8143   12.6925 C.2     1  UNL1        0.0968
      7 C          65.0793   92.1325   12.2627 C.3     1  UNL1        0.1533
      8 C          64.0996   91.2737   13.0060 C.2     1  UNL1        0.2205
      9 N          62.8995   90.7194   12.2972 N.2     1  UNL1       -0.0400
     10 N          60.2552   88.4764    9.0052 N.am    1  UNL1       -0.2666
     11 C          61.4555   89.0307    9.7140 C.2     1  UNL1        0.3927
     12 O          62.6323   88.1458   10.0004 O.2     1  UNL1       -0.2238
     13 N          61.4788   90.4697   10.1363 N.am    1  UNL1       -0.1531
     14 H          59.4828   89.0571    8.8172 H       1  UNL1        0.1533
     15 H          60.7064   91.0505    9.9484 H       1  UNL1        0.3030
     16 C          59.1631   86.5461    7.6520 C.3     1  UNL1        0.0263
     17 C          60.2319   87.0373    8.5828 C.3     1  UNL1        0.0977
     18 C          61.2773   86.0894    9.0913 C.ar    1  UNL1       -0.0044
     19 C          61.3011   85.7066   10.5414 C.ar    1  UNL1       -0.0027
     20 C          62.3465   84.7587   11.0498 C.ar    1  UNL1       -0.0003
     21 C          63.3682   84.1935   10.1082 C.ar    1  UNL1       -0.0000
     22 C          63.3444   84.5763    8.6581 C.ar    1  UNL1       -0.0003
     23 C          62.2990   85.5242    8.1496 C.ar    1  UNL1       -0.0027
     24 C          66.9430   92.7767   14.0674 C.ar    1  UNL1        0.0557
     25 C          66.2131   93.0260   15.3538 C.ar    1  UNL1        0.1229
     26 N          67.1955   92.8866   16.4788 N.ar    1  UNL1       -0.1676
     27 N          68.5326   92.5511   15.8874 N.ar    1  UNL1       -0.2473
     28 C          69.8029   92.3234   16.6521 C.3     1  UNL1        0.1538
     29 C          68.3765   92.4832   14.3971 C.ar    1  UNL1        0.0979
@<TRIPOS>BOND
     1    17    16    1
     2    17    10    1
     3    10    11   am
     4    11    12    2
     5    11    13   am
     6    13     1    1
     7     1     2    2
     8     2     3    1
     9     3     4    2
    10     4     5    1
    11     5     6    2
    12     6    24    1
    13    24    25   ar
    14    25    26   ar
    15    26    27   ar
    16    27    28    1
    17    27    29   ar
    18     6     7    1
    19     7     8    1
    20     8     9    2
    21    17    18    1
    22    18    19   ar
    23    19    20   ar
    24    20    21   ar
    25    21    22   ar
    26    22    23   ar
    27     9     1    1
    28    23    18   ar
    29     7     3    1
    30    29    24   ar
    31    10    14    1
    32    13    15    1
@<TRIPOS>MOLECULE
*****
 29 32 0 0 0
SMALL
GASTEIGER

@<TRIPOS>ATOM
      1 C          61.9892   88.3194   10.8488 C.2     1  UNL1        0.3298
      2 C          61.1289   87.2075   10.3258 C.2     1  UNL1        0.1070
      3 C          60.2652   87.4313    9.1201 C.2     1  UNL1        0.1012
      4 N          59.3196   86.5309    8.3817 N.2     1  UNL1       -0.1516
      5 N          58.7317   87.3099    7.2427 N.2     1  UNL1       -0.1517
      6 C          59.3141   88.6919    7.2770 C.2     1  UNL1        0.0968
      7 C          60.2618   88.7669    8.4373 C.3     1  UNL1        0.1533
      8 C          61.1221   89.8787    8.9603 C.2     1  UNL1        0.2205
      9 N          61.9858   89.6550   10.1660 N.2     1  UNL1       -0.0400
     10 N          63.9423   88.9866   14.2386 N.am    1  UNL1       -0.2666
     11 C          63.0785   89.2103   13.0328 C.2     1  UNL1        0.3927
     12 O          62.4403   90.5485   12.8052 O.2     1  UNL1       -0.2238
     13 N          62.8530   88.0957   12.0546 N.am    1  UNL1       -0.1531
     14 H          64.3612   88.1083   14.3880 H       1  UNL1        0.1533
     15 H          63.2718   87.2174   12.2040 H       1  UNL1        0.3030
     16 C          63.3456   90.1779   16.4690 C.3     1  UNL1        0.0263
     17 C          64.1678   90.1011   15.2168 C.3     1  UNL1        0.0977
     18 C          65.2156   91.1390   14.9428 C.ar    1  UNL1       -0.0044
     19 C          65.6898   92.0359   16.0476 C.ar    1  UNL1       -0.0027
     20 C          66.7376   93.0737   15.7736 C.ar    1  UNL1       -0.0003
     21 C          67.3112   93.2146   14.3948 C.ar    1  UNL1       -0.0000
     22 C          66.8371   92.3176   13.2901 C.ar    1  UNL1       -0.0003
     23 C          65.7893   91.2798   13.5640 C.ar    1  UNL1       -0.0027
     24 C          59.0032   89.8036    6.3192 C.ar    1  UNL1        0.0557
     25 C          57.6375   90.3325    5.9955 C.ar    1  UNL1        0.1229
     26 N          57.7937   91.4375    4.9932 N.ar    1  UNL1       -0.1676
     27 N          59.2562   91.5915    4.6975 N.ar    1  UNL1       -0.2473
     28 C          59.8645   92.5816    3.7488 C.3     1  UNL1        0.1538
     29 C          60.0037   90.5817    5.5170 C.ar    1  UNL1        0.0979
@<TRIPOS>BOND
     1    17    16    1
     2    17    10    1
     3    10    11   am
     4    11    12    2
     5    11    13   am
     6    13     1    1
     7     1     2    2
     8     2     3    1
     9     3     4    2
    10     4     5    1
    11     5     6    2
    12     6    24    1
    13    24    25   ar
    14    25    26   ar
    15    26    27   ar
    16    27    28    1
    17    27    29   ar
    18     6     7    1
    19     7     8    1
    20     8     9    2
    21    17    18    1
    22    18    19   ar
    23    19    20   ar
    24    20    21   ar
    25    21    22   ar
    26    22    23   ar
    27     9     1    1
    28    23    18   ar
    29     7     3    1
    30    29    24   ar
    31    10    14    1
    32    13    15    1
@<TRIPOS>MOLECULE
*****
 29 32 0 0 0
SMALL
GASTEIGER

@<TRIPOS>ATOM
      1 C          63.4441   89.1776   12.6695 C.2     1  UNL1        0.3298
      2 C          64.1486   88.7667   13.9284 C.2     1  UNL1        0.1070
      3 C          64.1627   87.3254   14.3436 C.2     1  UNL1        0.1012
      4 N          64.7706   86.6268   15.5236 N.2     1  UNL1       -0.1516
      5 N          64.4560   85.1646   15.4092 N.2     1  UNL1       -0.1517
      6 C          63.6536   84.9596   14.1586 C.2     1  UNL1        0.0968
      7 C          63.4723   86.2951   13.5000 C.3     1  UNL1        0.1533
      8 C          62.7678   86.7060   12.2411 C.2     1  UNL1        0.2205
      9 N          62.7537   88.1473   11.8259 N.2     1  UNL1       -0.0400
     10 N          64.6336   92.9118   12.0437 N.am    1  UNL1       -0.2666
     11 C          64.6477   91.4705   12.4590 C.2     1  UNL1        0.3927
     12 O          65.8797   90.8807   13.0791 O.2     1  UNL1       -0.2238
     13 N          63.4299   90.6190   12.2543 N.am    1  UNL1       -0.1531
     14 H          63.8250   93.2989   11.6368 H       1  UNL1        0.1533
     15 H          62.6214   91.0061   11.8473 H       1  UNL1        0.3030
     16 C          66.4927   93.8416   13.6022 C.3     1  UNL1        0.0263
     17 C          65.8513   93.7633   12.2485 C.3     1  UNL1        0.0977
     18 C          66.4277   94.5365   11.0996 C.ar    1  UNL1       -0.0044
     19 C          66.3268   96.0329   11.0768 C.ar    1  UNL1       -0.0027
     20 C          66.9032   96.8060    9.9279 C.ar    1  UNL1       -0.0003
     21 C          67.5805   96.0828    8.8018 C.ar    1  UNL1       -0.0000
     22 C          67.6814   94.5864    8.8246 C.ar    1  UNL1       -0.0003
     23 C          67.1050   93.8133    9.9735 C.ar    1  UNL1       -0.0027
     24 C          63.1252   83.6492   13.6549 C.ar    1  UNL1        0.0557
     25 C          63.3670   83.0653   12.2946 C.ar    1  UNL1        0.1229
     26 N          62.6535   81.7479   12.2220 N.ar    1  UNL1       -0.1676
     27 N          61.9707   81.5176   13.5377 N.ar    1  UNL1       -0.2473
     28 C          61.1418   80.3220   13.9035 C.3     1  UNL1        0.1538
     29 C          62.2622   82.6927   14.4232 C.ar    1  UNL1        0.0979
@<TRIPOS>BOND
     1    17    16    1
     2    17    10    1
     3    10    11   am
     4    11    12    2
     5    11    13   am
     6    13     1    1
     7     1     2    2
     8     2     3    1
     9     3     4    2
    10     4     5    1
    11     5     6    2
    12     6    24    1
    13    24    25   ar
    14    25    26   ar
    15    26    27   ar
    16    27    28    1
    17    27    29   ar
    18     6     7    1
    19     7     8    1
    20     8     9    2
    21    17    18    1
    22    18    19   ar
    23    19    20   ar
    24    20    21   ar
    25    21    22   ar
    26    22    23   ar
    27     9     1    1
    28    23    18   ar
    29     7     3    1
    30    29    24   ar
    31    10    14    1
    32    13    15    1
@<TRIPOS>MOLECULE
*****
 29 32 0 0 0
SMALL
GASTEIGER

@<TRIPOS>ATOM
      1 C          62.8330   90.8276   11.0756 C.2     1  UNL1        0.3298
      2 C          62.4819   90.4508   12.4843 C.2     1  UNL1        0.1070
      3 C          63.4343   90.7566   13.6020 C.2     1  UNL1        0.1012
      4 N          63.3617   90.5067   15.0793 N.2     1  UNL1       -0.1516
      5 N          64.6204   91.0349   15.7013 N.2     1  UNL1       -0.1517
      6 C          65.4709   91.6112   14.6084 C.2     1  UNL1        0.0968
      7 C          64.7379   91.4392   13.3110 C.3     1  UNL1        0.1533
      8 C          65.0891   91.8160   11.9022 C.2     1  UNL1        0.2205
      9 N          64.1366   91.5102   10.7845 N.2     1  UNL1       -0.0400
     10 N          60.4538   88.8098    8.6224 N.am    1  UNL1       -0.2666
     11 C          61.4062   89.1156    9.7402 C.2     1  UNL1        0.3927
     12 O          61.8843   88.0150   10.6404 O.2     1  UNL1       -0.2238
     13 N          61.8806   90.5218    9.9578 N.am    1  UNL1       -0.1531
     14 H          60.1400   89.5321    8.0316 H       1  UNL1        0.1533
     15 H          61.5668   91.2441    9.3670 H       1  UNL1        0.3030
     16 C          58.5518   87.0412    8.6886 C.3     1  UNL1        0.0263
     17 C          59.9794   87.4035    8.4048 C.3     1  UNL1        0.0977
     18 C          60.9327   86.3595    7.9035 C.ar    1  UNL1       -0.0044
     19 C          62.2141   86.0991    8.6384 C.ar    1  UNL1       -0.0027
     20 C          63.1674   85.0551    8.1371 C.ar    1  UNL1       -0.0003
     21 C          62.8393   84.2716    6.9008 C.ar    1  UNL1       -0.0000
     22 C          61.5579   84.5320    6.1660 C.ar    1  UNL1       -0.0003
     23 C          60.6046   85.5759    6.6673 C.ar    1  UNL1       -0.0027
     24 C          66.8180   92.2477   14.7823 C.ar    1  UNL1        0.0557
     25 C          68.0453   91.9492   13.9733 C.ar    1  UNL1        0.1229
     26 N          69.1601   92.8115   14.4867 N.ar    1  UNL1       -0.1676
     27 N          68.6217   93.6430   15.6132 N.ar    1  UNL1       -0.2473
     28 C          69.3951   94.6467   16.4160 C.3     1  UNL1        0.1538
     29 C          67.1742   93.2945   15.7958 C.ar    1  UNL1        0.0979
@<TRIPOS>BOND
     1    17    16    1
     2    17    10    1
     3    10    11   am
     4    11    12    2
     5    11    13   am
     6    13     1    1
     7     1     2    2
     8     2     3    1
     9     3     4    2
    10     4     5    1
    11     5     6    2
    12     6    24    1
    13    24    25   ar
    14    25    26   ar
    15    26    27   ar
    16    27    28    1
    17    27    29   ar
    18     6     7    1
    19     7     8    1
    20     8     9    2
    21    17    18    1
    22    18    19   ar
    23    19    20   ar
    24    20    21   ar
    25    21    22   ar
    26    22    23   ar
    27     9     1    1
    28    23    18   ar
    29     7     3    1
    30    29    24   ar
    31    10    14    1
    32    13    15    1
@<TRIPOS>MOLECULE
*****
 29 32 0 0 0
SMALL
GASTEIGER

@<TRIPOS>ATOM
      1 C          59.2633   90.2344    5.6833 C.2     1  UNL1        0.3298
      2 C          60.6967   90.2963    5.2456 C.2     1  UNL1        0.1070
      3 C          61.1298   91.3199    4.2384 C.2     1  UNL1        0.1012
      4 N          62.4637   91.6188    3.6209 N.2     1  UNL1       -0.1516
      5 N          62.2879   92.7653    2.6698 N.2     1  UNL1       -0.1517
      6 C          60.8453   93.1750    2.6994 C.2     1  UNL1        0.0968
      7 C          60.1295   92.2817    3.6688 C.3     1  UNL1        0.1533
      8 C          58.6961   92.2199    4.1065 C.2     1  UNL1        0.2205
      9 N          58.2631   91.1962    5.1137 N.2     1  UNL1       -0.0400
     10 N          59.2478   87.9136    8.9026 N.am    1  UNL1       -0.2666
     11 C          59.6809   88.9372    7.8953 C.2     1  UNL1        0.3927
     12 O          60.9647   89.6874    8.0929 O.2     1  UNL1       -0.2238
     13 N          58.8302   89.2107    6.6905 N.am    1  UNL1       -0.1531
     14 H          58.4051   87.4212    8.7729 H       1  UNL1        0.1533
     15 H          57.9876   88.7184    6.5609 H       1  UNL1        0.3030
     16 C          59.8784   88.4153   11.3724 C.3     1  UNL1        0.0263
     17 C          60.0984   87.6401   10.1073 C.3     1  UNL1        0.0977
     18 C          61.1692   86.5913   10.0470 C.ar    1  UNL1       -0.0044
     19 C          61.8509   86.2895    8.7454 C.ar    1  UNL1       -0.0027
     20 C          62.9216   85.2407    8.6851 C.ar    1  UNL1       -0.0003
     21 C          63.3106   84.4938    9.9263 C.ar    1  UNL1       -0.0000
     22 C          62.6289   84.7956   11.2279 C.ar    1  UNL1       -0.0003
     23 C          61.5582   85.8443   11.2882 C.ar    1  UNL1       -0.0027
     24 C          60.2269   94.2834    1.9000 C.ar    1  UNL1        0.0557
     25 C          60.3265   95.7494    2.2011 C.ar    1  UNL1        0.1229
     26 N          59.5616   96.4925    1.1463 N.ar    1  UNL1       -0.1676
     27 N          58.9891   95.4856    0.1932 N.ar    1  UNL1       -0.2473
     28 C          58.1523   95.7904   -1.0139 C.3     1  UNL1        0.1538
     29 C          59.4003   94.1203    0.6589 C.ar    1  UNL1        0.0979
@<TRIPOS>BOND
     1    17    16    1
     2    17    10    1
     3    10    11   am
     4    11    12    2
     5    11    13   am
     6    13     1    1
     7     1     2    2
     8     2     3    1
     9     3     4    2
    10     4     5    1
    11     5     6    2
    12     6    24    1
    13    24    25   ar
    14    25    26   ar
    15    26    27   ar
    16    27    28    1
    17    27    29   ar
    18     6     7    1
    19     7     8    1
    20     8     9    2
    21    17    18    1
    22    18    19   ar
    23    19    20   ar
    24    20    21   ar
    25    21    22   ar
    26    22    23   ar
    27     9     1    1
    28    23    18   ar
    29     7     3    1
    30    29    24   ar
    31    10    14    1
    32    13    15    1
@<TRIPOS>MOLECULE
*****
 29 32 0 0 0
SMALL
GASTEIGER

@<TRIPOS>ATOM
      1 C          63.4329   86.9417   13.1256 C.2     1  UNL1        0.3298
      2 C          63.9175   86.2553   14.3681 C.2     1  UNL1        0.1070
      3 C          63.9062   84.7576   14.4504 C.2     1  UNL1        0.1012
      4 N          64.3193   83.8090   15.5364 N.2     1  UNL1       -0.1516
      5 N          64.0787   82.4115   15.0475 N.2     1  UNL1       -0.1517
      6 C          63.5168   82.4964   13.6593 C.2     1  UNL1        0.0968
      7 C          63.4102   83.9464   13.2903 C.3     1  UNL1        0.1533
      8 C          62.9256   84.6328   12.0478 C.2     1  UNL1        0.2205
      9 N          62.9369   86.1305   11.9654 N.2     1  UNL1       -0.0400
     10 N          64.0803   90.7441   14.0600 N.am    1  UNL1       -0.2666
     11 C          64.0690   89.2464   14.1424 C.2     1  UNL1        0.3927
     12 O          64.6825   88.5557   15.3241 O.2     1  UNL1       -0.2238
     13 N          63.4442   88.4395   13.0431 N.am    1  UNL1       -0.1531
     14 H          63.6776   91.1975   13.2844 H       1  UNL1        0.1533
     15 H          63.0415   88.8928   12.2675 H       1  UNL1        0.3030
     16 C          63.8921   91.9426   16.3573 C.3     1  UNL1        0.0263
     17 C          64.7052   91.5511   15.1592 C.3     1  UNL1        0.0977
     18 C          66.1431   91.9665   15.0604 C.ar    1  UNL1       -0.0044
     19 C          66.9426   91.6169   13.8403 C.ar    1  UNL1       -0.0027
     20 C          68.3805   92.0323   13.7415 C.ar    1  UNL1       -0.0003
     21 C          69.0190   92.7973   14.8626 C.ar    1  UNL1       -0.0000
     22 C          68.2195   93.1470   16.0827 C.ar    1  UNL1       -0.0003
     23 C          66.7815   92.7315   16.1815 C.ar    1  UNL1       -0.0027
     24 C          63.1296   81.3352   12.7923 C.ar    1  UNL1        0.0557
     25 C          62.5068   80.0538   13.2613 C.ar    1  UNL1        0.1229
     26 N          62.2894   79.1782   12.0630 N.ar    1  UNL1       -0.1676
     27 N          62.7779   79.9186   10.8533 N.ar    1  UNL1       -0.2473
     28 C          62.7517   79.4143    9.4408 C.3     1  UNL1        0.1538
     29 C          63.2971   81.2517   11.3041 C.ar    1  UNL1        0.0979
@<TRIPOS>BOND
     1    17    16    1
     2    17    10    1
     3    10    11   am
     4    11    12    2
     5    11    13   am
     6    13     1    1
     7     1     2    2
     8     2     3    1
     9     3     4    2
    10     4     5    1
    11     5     6    2
    12     6    24    1
    13    24    25   ar
    14    25    26   ar
    15    26    27   ar
    16    27    28    1
    17    27    29   ar
    18     6     7    1
    19     7     8    1
    20     8     9    2
    21    17    18    1
    22    18    19   ar
    23    19    20   ar
    24    20    21   ar
    25    21    22   ar
    26    22    23   ar
    27     9     1    1
    28    23    18   ar
    29     7     3    1
    30    29    24   ar
    31    10    14    1
    32    13    15    1
@<TRIPOS>MOLECULE
*****
 29 32 0 0 0
SMALL
GASTEIGER

@<TRIPOS>ATOM
      1 C          63.0973   89.5889   12.3169 C.2     1  UNL1        0.3298
      2 C          62.4560   88.9194   11.1378 C.2     1  UNL1        0.1070
      3 C          62.3352   87.4248   11.0982 C.2     1  UNL1        0.1012
      4 N          61.7559   86.4914   10.0769 N.2     1  UNL1       -0.1516
      5 N          61.9183   85.0895   10.5852 N.2     1  UNL1       -0.1517
      6 C          62.5980   85.1565   11.9206 C.2     1  UNL1        0.0968
      7 C          62.8557   86.5998   12.2377 C.3     1  UNL1        0.1533
      8 C          63.4970   87.2694   13.4168 C.2     1  UNL1        0.2205
      9 N          63.6179   88.7639   13.4564 N.2     1  UNL1       -0.0400
     10 N          64.6941   93.2213   12.3979 N.am    1  UNL1       -0.2666
     11 C          64.5733   91.7267   12.3582 C.2     1  UNL1        0.3927
     12 O          65.8076   90.8752   12.3202 O.2     1  UNL1       -0.2238
     13 N          63.2182   91.0836   12.3566 N.am    1  UNL1       -0.1531
     14 H          63.8840   93.7802   12.4229 H       1  UNL1        0.1533
     15 H          62.4081   91.6424   12.3816 H       1  UNL1        0.3030
     16 C          66.8824   93.8548   13.6467 C.3     1  UNL1        0.0263
     17 C          66.0492   93.8644   12.3995 C.3     1  UNL1        0.0977
     18 C          66.5711   94.5172   11.1539 C.ar    1  UNL1       -0.0044
     19 C          66.4762   96.0052   10.9907 C.ar    1  UNL1       -0.0027
     20 C          66.9981   96.6580    9.7451 C.ar    1  UNL1       -0.0003
     21 C          67.6149   95.8227    8.6627 C.ar    1  UNL1       -0.0000
     22 C          67.7098   94.3346    8.8258 C.ar    1  UNL1       -0.0003
     23 C          67.1879   93.6819   10.0714 C.ar    1  UNL1       -0.0027
     24 C          62.9571   83.9858   12.7869 C.ar    1  UNL1        0.0557
     25 C          63.7167   84.0451   14.0789 C.ar    1  UNL1        0.1229
     26 N          63.8487   82.6462   14.6039 N.ar    1  UNL1       -0.1676
     27 N          63.1706   81.7222   13.6361 N.ar    1  UNL1       -0.2473
     28 C          63.0625   80.2319   13.7681 C.3     1  UNL1        0.1538
     29 C          62.6196   82.5501   12.5132 C.ar    1  UNL1        0.0979
@<TRIPOS>BOND
     1    17    16    1
     2    17    10    1
     3    10    11   am
     4    11    12    2
     5    11    13   am
     6    13     1    1
     7     1     2    2
     8     2     3    1
     9     3     4    2
    10     4     5    1
    11     5     6    2
    12     6    24    1
    13    24    25   ar
    14    25    26   ar
    15    26    27   ar
    16    27    28    1
    17    27    29   ar
    18     6     7    1
    19     7     8    1
    20     8     9    2
    21    17    18    1
    22    18    19   ar
    23    19    20   ar
    24    20    21   ar
    25    21    22   ar
    26    22    23   ar
    27     9     1    1
    28    23    18   ar
    29     7     3    1
    30    29    24   ar
    31    10    14    1
    32    13    15    1
