@<TRIPOS>MOLECULE
*****
 34 39 0 0 0
SMALL
GASTEIGER

@<TRIPOS>ATOM
      1 C          64.4857   85.9413   14.6976 C.3     1  UNL1        0.0749
      2 C          63.8125   85.5343   13.4204 C.3     1  UNL1        0.0444
      3 C          63.3374   84.1230   13.2397 C.ar    1  UNL1       -0.0101
      4 C          63.5353   83.1189   14.3363 C.ar    1  UNL1       -0.0091
      5 C          63.0601   81.7077   14.1556 C.ar    1  UNL1       -0.0032
      6 C          62.3870   81.3007   12.8784 C.ar    1  UNL1        0.0010
      7 C          62.1891   82.3048   11.7819 C.ar    1  UNL1        0.0142
      8 C          62.6642   83.7160   11.9625 C.ar    1  UNL1        0.0436
      9 C          64.2084   83.5259   15.6135 C.3     1  UNL1        0.0954
     10 N          64.6836   84.9371   15.7942 N.3     1  UNL1       -0.2934
     11 H          65.6868   84.8894   15.9723 H       1  UNL1        0.1236
     12 N          62.4663   84.7203   10.8660 N.pl3   1  UNL1       -0.3049
     13 C          61.4828   85.8391   11.0422 C.3     1  UNL1        0.1079
     14 C          61.2849   86.8433    9.9457 C.3     1  UNL1        0.0903
     15 N          62.0705   86.7288    8.6730 N.3     1  UNL1       -0.2946
     16 C          63.0540   85.6100    8.4968 C.3     1  UNL1        0.0903
     17 C          63.2519   84.6057    9.5933 C.3     1  UNL1        0.1079
     18 H          62.5927   87.5989    8.5700 H       1  UNL1        0.1233
     19 C          64.9608   87.3525   14.8783 C.3     1  UNL1        0.0886
     20 N          63.9742   88.4824   14.8747 N.3     1  UNL1       -0.2679
     21 C          66.2229   93.1582   13.3480 C.ar    1  UNL1        0.0203
     22 C          66.3593   92.2854   14.5603 C.ar    1  UNL1        0.0985
     23 N          65.5642   91.0177   14.6651 N.ar    1  UNL1       -0.2471
     24 C          64.6328   90.6229   13.5577 C.ar    1  UNL1        0.0695
     25 C          64.4964   91.4956   12.3454 C.ar    1  UNL1       -0.0073
     26 C          65.2914   92.7633   12.2406 C.ar    1  UNL1       -0.0015
     27 C          63.5649   91.1008   11.2379 C.3     1  UNL1        0.0277
     28 C          62.7699   89.8331   11.3427 C.3     1  UNL1        0.0065
     29 C          62.9064   88.9603   12.5551 C.3     1  UNL1        0.0224
     30 C          63.8378   89.3552   13.6625 C.3     1  UNL1        0.0978
     31 C          63.1240   88.7395   16.0835 C.3     1  UNL1        0.0724
     32 C          62.7650   87.6092   17.0020 C.3     1  UNL1        0.0160
     33 C          62.0588   86.3087   17.2472 C.3     1  UNL1        0.0014
     34 C          62.8493   86.9520   18.3478 C.3     1  UNL1        0.0014
@<TRIPOS>BOND
     1    21    22   ar
     2    22    23   ar
     3    23    24   ar
     4    24    25   ar
     5    25    26   ar
     6    25    27    1
     7    27    28    1
     8    28    29    1
     9    29    30    1
    10    30    20    1
    11    20    31    1
    12    31    32    1
    13    32    33    1
    14    33    34    1
    15    20    19    1
    16     1    19    1
    17     1     2    1
    18     2     3    1
    19     3     4   ar
    20     4     5   ar
    21     5     6   ar
    22     6     7   ar
    23     7     8   ar
    24     8    12    1
    25    12    13    1
    26    13    14    1
    27    14    15    1
    28    15    16    1
    29    16    17    1
    30     4     9    1
    31     9    10    1
    32    26    21   ar
    33    34    32    1
    34    10     1    1
    35    30    24    1
    36     8     3   ar
    37    17    12    1
    38    15    18    1
    39    10    11    1
@<TRIPOS>MOLECULE
*****
 34 39 0 0 0
SMALL
GASTEIGER

@<TRIPOS>ATOM
      1 C          63.1154   89.8187   11.8353 C.3     1  UNL1        0.0749
      2 C          64.1812   90.8724   11.7734 C.3     1  UNL1        0.0444
      3 C          64.7669   91.4220   13.0404 C.ar    1  UNL1       -0.0101
      4 C          64.2869   90.9177   14.3690 C.ar    1  UNL1       -0.0091
      5 C          64.8727   91.4672   15.6358 C.ar    1  UNL1       -0.0032
      6 C          65.9384   92.5210   15.5740 C.ar    1  UNL1        0.0010
      7 C          66.4184   93.0252   14.2454 C.ar    1  UNL1        0.0142
      8 C          65.8327   92.4757   12.9786 C.ar    1  UNL1        0.0436
      9 C          63.2212   89.8640   14.4308 C.3     1  UNL1        0.0954
     10 N          62.6354   89.3145   13.1640 N.3     1  UNL1       -0.2934
     11 H          61.6320   89.4933   13.2018 H       1  UNL1        0.1236
     12 N          66.3126   92.9799   11.6498 N.pl3   1  UNL1       -0.3049
     13 C          67.3781   92.2323   10.9043 C.3     1  UNL1        0.1079
     14 C          67.8581   92.7365    9.5757 C.3     1  UNL1        0.0903
     15 N          67.2726   93.9884    8.9924 N.3     1  UNL1       -0.2946
     16 C          66.2071   94.7360    9.7380 C.3     1  UNL1        0.0903
     17 C          65.7271   94.2318   11.0667 C.3     1  UNL1        0.1079
     18 H          66.8758   93.7342    8.0878 H       1  UNL1        0.1233
     19 C          62.5297   89.2692   10.5684 C.3     1  UNL1        0.0886
     20 N          61.7081   88.0146   10.6044 N.3     1  UNL1       -0.2679
     21 C          63.8397   83.7700   13.1907 C.ar    1  UNL1        0.0203
     22 C          63.2432   85.0703   13.6416 C.ar    1  UNL1        0.0985
     23 N          62.7315   86.0518   12.6292 N.ar    1  UNL1       -0.2471
     24 C          62.8163   85.7329   11.1660 C.ar    1  UNL1        0.0695
     25 C          63.4128   84.4326   10.7151 C.ar    1  UNL1       -0.0073
     26 C          63.9245   83.4511   11.7275 C.ar    1  UNL1       -0.0015
     27 C          63.4976   84.1136    9.2518 C.3     1  UNL1        0.0277
     28 C          62.9859   85.0951    8.2394 C.3     1  UNL1        0.0065
     29 C          62.3894   86.3954    8.6904 C.3     1  UNL1        0.0224
     30 C          62.3046   86.7143   10.1536 C.3     1  UNL1        0.0978
     31 C          60.2900   88.0605   11.0913 C.3     1  UNL1        0.0724
     32 C          59.6651   89.3740   11.4579 C.3     1  UNL1        0.0160
     33 C          59.5023   90.8462   11.2211 C.3     1  UNL1        0.0014
     34 C          58.7454   90.1766   12.3296 C.3     1  UNL1        0.0014
@<TRIPOS>BOND
     1    21    22   ar
     2    22    23   ar
     3    23    24   ar
     4    24    25   ar
     5    25    26   ar
     6    25    27    1
     7    27    28    1
     8    28    29    1
     9    29    30    1
    10    30    20    1
    11    20    31    1
    12    31    32    1
    13    32    33    1
    14    33    34    1
    15    20    19    1
    16     1    19    1
    17     1     2    1
    18     2     3    1
    19     3     4   ar
    20     4     5   ar
    21     5     6   ar
    22     6     7   ar
    23     7     8   ar
    24     8    12    1
    25    12    13    1
    26    13    14    1
    27    14    15    1
    28    15    16    1
    29    16    17    1
    30     4     9    1
    31     9    10    1
    32    26    21   ar
    33    34    32    1
    34    10     1    1
    35    30    24    1
    36     8     3   ar
    37    17    12    1
    38    15    18    1
    39    10    11    1
@<TRIPOS>MOLECULE
*****
 34 39 0 0 0
SMALL
GASTEIGER

@<TRIPOS>ATOM
      1 C          63.0778   90.9251   11.5537 C.3     1  UNL1        0.0749
      2 C          64.3229   91.7585   11.4818 C.3     1  UNL1        0.0444
      3 C          65.1739   91.9423   12.7033 C.ar    1  UNL1       -0.0101
      4 C          64.7798   91.2927   13.9966 C.ar    1  UNL1       -0.0091
      5 C          65.6308   91.4765   15.2181 C.ar    1  UNL1       -0.0032
      6 C          66.8759   92.3099   15.1462 C.ar    1  UNL1        0.0010
      7 C          67.2700   92.9595   13.8529 C.ar    1  UNL1        0.0142
      8 C          66.4190   92.7757   12.6315 C.ar    1  UNL1        0.0436
      9 C          63.5347   90.4593   14.0685 C.3     1  UNL1        0.0954
     10 N          62.6837   90.2755   12.8470 N.3     1  UNL1       -0.2934
     11 H          61.7541   90.6245   13.0806 H       1  UNL1        0.1236
     12 N          66.8131   93.4254   11.3381 N.pl3   1  UNL1       -0.3049
     13 C          67.5773   92.6456   10.3095 C.3     1  UNL1        0.1079
     14 C          67.9714   93.2952    9.0162 C.3     1  UNL1        0.0903
     15 N          67.6012   94.7245    8.7514 N.3     1  UNL1       -0.2946
     16 C          66.8370   95.5042    9.7799 C.3     1  UNL1        0.0903
     17 C          66.4429   94.8546   11.0733 C.3     1  UNL1        0.1079
     18 H          67.0393   94.7303    7.9001 H       1  UNL1        0.1233
     19 C          62.2268   90.7413   10.3322 C.3     1  UNL1        0.0886
     20 N          60.9409   89.9742   10.4225 N.3     1  UNL1       -0.2679
     21 C          62.7311   84.9800   11.4728 C.ar    1  UNL1        0.0203
     22 C          62.8666   86.3014   12.1695 C.ar    1  UNL1        0.0985
     23 N          62.2247   87.5257   11.5872 N.ar    1  UNL1       -0.2471
     24 C          61.4472   87.4286   10.3081 C.ar    1  UNL1        0.0695
     25 C          61.3117   86.1072    9.6114 C.ar    1  UNL1       -0.0073
     26 C          61.9536   84.8829   10.1937 C.ar    1  UNL1       -0.0015
     27 C          60.5342   86.0100    8.3323 C.3     1  UNL1        0.0277
     28 C          59.8923   87.2342    7.7499 C.3     1  UNL1        0.0065
     29 C          60.0278   88.5557    8.4467 C.3     1  UNL1        0.0224
     30 C          60.8053   88.6528    9.7258 C.3     1  UNL1        0.0978
     31 C          59.7905   90.5286   11.2095 C.3     1  UNL1        0.0724
     32 C          59.1150   89.6824   12.2477 C.3     1  UNL1        0.0160
     33 C          59.1544   88.9609   13.5622 C.3     1  UNL1        0.0014
     34 C          57.9057   88.9384   12.7313 C.3     1  UNL1        0.0014
@<TRIPOS>BOND
     1    21    22   ar
     2    22    23   ar
     3    23    24   ar
     4    24    25   ar
     5    25    26   ar
     6    25    27    1
     7    27    28    1
     8    28    29    1
     9    29    30    1
    10    30    20    1
    11    20    31    1
    12    31    32    1
    13    32    33    1
    14    33    34    1
    15    20    19    1
    16     1    19    1
    17     1     2    1
    18     2     3    1
    19     3     4   ar
    20     4     5   ar
    21     5     6   ar
    22     6     7   ar
    23     7     8   ar
    24     8    12    1
    25    12    13    1
    26    13    14    1
    27    14    15    1
    28    15    16    1
    29    16    17    1
    30     4     9    1
    31     9    10    1
    32    26    21   ar
    33    34    32    1
    34    10     1    1
    35    30    24    1
    36     8     3   ar
    37    17    12    1
    38    15    18    1
    39    10    11    1
@<TRIPOS>MOLECULE
*****
 34 39 0 0 0
SMALL
GASTEIGER

@<TRIPOS>ATOM
      1 C          63.2431   91.0609   12.0643 C.3     1  UNL1        0.0749
      2 C          64.5546   91.7437   11.8117 C.3     1  UNL1        0.0444
      3 C          65.5325   91.9283   12.9341 C.ar    1  UNL1       -0.0101
      4 C          65.1988   91.4302   14.3090 C.ar    1  UNL1       -0.0091
      5 C          66.1767   91.6148   15.4314 C.ar    1  UNL1       -0.0032
      6 C          67.4882   92.2976   15.1788 C.ar    1  UNL1        0.0010
      7 C          67.8218   92.7957   13.8039 C.ar    1  UNL1        0.0142
      8 C          66.8440   92.6111   12.6815 C.ar    1  UNL1        0.0436
      9 C          63.8873   90.7474   14.5616 C.3     1  UNL1        0.0954
     10 N          62.9095   90.5627   13.4393 N.3     1  UNL1       -0.2934
     11 H          62.0471   91.0294   13.7203 H       1  UNL1        0.1236
     12 N          67.1776   93.1092   11.3065 N.pl3   1  UNL1       -0.3049
     13 C          66.7055   94.4625   10.8641 C.3     1  UNL1        0.1079
     14 C          67.0391   94.9607    9.4891 C.3     1  UNL1        0.0903
     15 N          67.8448   94.1056    8.5565 N.3     1  UNL1       -0.2946
     16 C          68.3169   92.7523    8.9990 C.3     1  UNL1        0.0903
     17 C          67.9833   92.2541   10.3740 C.3     1  UNL1        0.1079
     18 H          68.6768   94.6417    8.3102 H       1  UNL1        0.1233
     19 C          62.2653   90.8762   10.9419 C.3     1  UNL1        0.0886
     20 N          61.1333   89.9026   11.0860 N.3     1  UNL1       -0.2679
     21 C          59.3535   86.7674    7.0545 C.ar    1  UNL1        0.0203
     22 C          59.1535   88.2091    7.4169 C.ar    1  UNL1        0.0985
     23 N          59.8134   88.7736    8.6399 N.ar    1  UNL1       -0.2471
     24 C          60.6734   87.8964    9.5006 C.ar    1  UNL1        0.0695
     25 C          60.8735   86.4547    9.1383 C.ar    1  UNL1       -0.0073
     26 C          60.2135   85.8902    7.9152 C.ar    1  UNL1       -0.0015
     27 C          61.7335   85.5773    9.9990 C.3     1  UNL1        0.0277
     28 C          62.3934   86.1419   11.2220 C.3     1  UNL1        0.0065
     29 C          62.1933   87.5837   11.5843 C.3     1  UNL1        0.0224
     30 C          61.3333   88.4609   10.7236 C.3     1  UNL1        0.0978
     31 C          59.8012   90.3708   11.5924 C.3     1  UNL1        0.0724
     32 C          59.0089   89.5070   12.5284 C.3     1  UNL1        0.0160
     33 C          58.8593   88.8293   13.8582 C.3     1  UNL1        0.0014
     34 C          57.7861   88.6886   12.8198 C.3     1  UNL1        0.0014
@<TRIPOS>BOND
     1    21    22   ar
     2    22    23   ar
     3    23    24   ar
     4    24    25   ar
     5    25    26   ar
     6    25    27    1
     7    27    28    1
     8    28    29    1
     9    29    30    1
    10    30    20    1
    11    20    31    1
    12    31    32    1
    13    32    33    1
    14    33    34    1
    15    20    19    1
    16     1    19    1
    17     1     2    1
    18     2     3    1
    19     3     4   ar
    20     4     5   ar
    21     5     6   ar
    22     6     7   ar
    23     7     8   ar
    24     8    12    1
    25    12    13    1
    26    13    14    1
    27    14    15    1
    28    15    16    1
    29    16    17    1
    30     4     9    1
    31     9    10    1
    32    26    21   ar
    33    34    32    1
    34    10     1    1
    35    30    24    1
    36     8     3   ar
    37    17    12    1
    38    15    18    1
    39    10    11    1
@<TRIPOS>MOLECULE
*****
 34 39 0 0 0
SMALL
GASTEIGER

@<TRIPOS>ATOM
      1 C          61.3952   89.4958   11.6391 C.3     1  UNL1        0.0749
      2 C          61.7028   88.0973   11.1923 C.3     1  UNL1        0.0444
      3 C          61.1228   87.5745    9.9115 C.ar    1  UNL1       -0.0101
      4 C          60.2354   88.4501    9.0775 C.ar    1  UNL1       -0.0091
      5 C          59.6555   87.9273    7.7968 C.ar    1  UNL1       -0.0032
      6 C          59.9630   86.5288    7.3501 C.ar    1  UNL1        0.0010
      7 C          60.8505   85.6531    8.1840 C.ar    1  UNL1        0.0142
      8 C          61.4304   86.1760    9.4648 C.ar    1  UNL1        0.0436
      9 C          59.9278   89.8486    9.5243 C.3     1  UNL1        0.0954
     10 N          60.5077   90.3715   10.8050 N.3     1  UNL1       -0.2934
     11 H          59.7213   90.6414   11.3958 H       1  UNL1        0.1236
     12 N          62.3179   85.3003   10.2988 N.pl3   1  UNL1       -0.3049
     13 C          63.3317   84.4138    9.6382 C.3     1  UNL1        0.1079
     14 C          64.2192   83.5381   10.4721 C.3     1  UNL1        0.0903
     15 N          64.0929   83.5489   11.9668 N.3     1  UNL1       -0.2946
     16 C          63.0791   84.4354   12.6275 C.3     1  UNL1        0.0903
     17 C          62.1916   85.3111   11.7934 C.3     1  UNL1        0.1079
     18 H          65.0046   83.8171   12.3374 H       1  UNL1        0.1233
     19 C          61.9751   90.0186   12.9198 C.3     1  UNL1        0.0886
     20 N          63.4609   90.0170   13.1261 N.3     1  UNL1       -0.2679
     21 C          66.9692   93.4897   15.3358 C.ar    1  UNL1        0.0203
     22 C          66.1354   92.3670   15.8783 C.ar    1  UNL1        0.0985
     23 N          65.2439   91.5837   14.9609 N.ar    1  UNL1       -0.2471
     24 C          65.1862   91.9230   13.5010 C.ar    1  UNL1        0.0695
     25 C          66.0200   93.0456   12.9584 C.ar    1  UNL1       -0.0073
     26 C          66.9115   93.8290   13.8758 C.ar    1  UNL1       -0.0015
     27 C          65.9623   93.3850   11.4984 C.3     1  UNL1        0.0277
     28 C          65.0708   92.6017   10.5810 C.3     1  UNL1        0.0065
     29 C          64.2370   91.4790   11.1237 C.3     1  UNL1        0.0224
     30 C          64.2947   91.1396   12.5836 C.3     1  UNL1        0.0978
     31 C          64.1129   88.8926   13.8750 C.3     1  UNL1        0.0724
     32 C          63.6923   88.5852   15.2817 C.3     1  UNL1        0.0160
     33 C          63.4866   87.5943   16.3889 C.3     1  UNL1        0.0014
     34 C          63.1696   89.0435   16.6109 C.3     1  UNL1        0.0014
@<TRIPOS>BOND
     1    21    22   ar
     2    22    23   ar
     3    23    24   ar
     4    24    25   ar
     5    25    26   ar
     6    25    27    1
     7    27    28    1
     8    28    29    1
     9    29    30    1
    10    30    20    1
    11    20    31    1
    12    31    32    1
    13    32    33    1
    14    33    34    1
    15    20    19    1
    16     1    19    1
    17     1     2    1
    18     2     3    1
    19     3     4   ar
    20     4     5   ar
    21     5     6   ar
    22     6     7   ar
    23     7     8   ar
    24     8    12    1
    25    12    13    1
    26    13    14    1
    27    14    15    1
    28    15    16    1
    29    16    17    1
    30     4     9    1
    31     9    10    1
    32    26    21   ar
    33    34    32    1
    34    10     1    1
    35    30    24    1
    36     8     3   ar
    37    17    12    1
    38    15    18    1
    39    10    11    1
@<TRIPOS>MOLECULE
*****
 34 39 0 0 0
SMALL
GASTEIGER

@<TRIPOS>ATOM
      1 C          63.3701   88.5739   13.3592 C.3     1  UNL1        0.0749
      2 C          63.0712   87.4861   12.3705 C.3     1  UNL1        0.0444
      3 C          63.4408   86.0663   12.6831 C.ar    1  UNL1       -0.0101
      4 C          64.1092   85.7343   13.9842 C.ar    1  UNL1       -0.0091
      5 C          64.4788   84.3146   14.2967 C.ar    1  UNL1       -0.0032
      6 C          64.1800   83.2268   13.3080 C.ar    1  UNL1        0.0010
      7 C          63.5116   83.5588   12.0069 C.ar    1  UNL1        0.0142
      8 C          63.1420   84.9785   11.6944 C.ar    1  UNL1        0.0436
      9 C          64.4081   86.8221   14.9729 C.3     1  UNL1        0.0954
     10 N          64.0385   88.2418   14.6604 N.3     1  UNL1       -0.2934
     11 H          64.9011   88.7851   14.6954 H       1  UNL1        0.1236
     12 N          62.4736   85.3106   10.3932 N.pl3   1  UNL1       -0.3049
     13 C          61.1522   86.0205   10.3886 C.3     1  UNL1        0.1079
     14 C          60.4838   86.3526    9.0875 C.3     1  UNL1        0.0903
     15 N          61.1367   85.9747    7.7909 N.3     1  UNL1       -0.2946
     16 C          62.4580   85.2647    7.7956 C.3     1  UNL1        0.0903
     17 C          63.1265   84.9326    9.0968 C.3     1  UNL1        0.1079
     18 H          61.2684   86.8385    7.2648 H       1  UNL1        0.1233
     19 C          63.0005   89.9936   13.0467 C.3     1  UNL1        0.0886
     20 N          63.4438   90.6175   11.7566 N.3     1  UNL1       -0.2679
     21 C          66.4399   92.9108   15.6314 C.ar    1  UNL1        0.0203
     22 C          65.4017   91.8282   15.6232 C.ar    1  UNL1        0.0985
     23 N          64.7491   91.4246   14.3344 N.ar    1  UNL1       -0.2471
     24 C          65.1346   92.1037   13.0537 C.ar    1  UNL1        0.0695
     25 C          66.1727   93.1863   13.0619 C.ar    1  UNL1       -0.0073
     26 C          66.8254   93.5899   14.3507 C.ar    1  UNL1       -0.0015
     27 C          66.5583   93.8654   11.7811 C.3     1  UNL1        0.0277
     28 C          65.9057   93.4619   10.4923 C.3     1  UNL1        0.0065
     29 C          64.8675   92.3792   10.4841 C.3     1  UNL1        0.0224
     30 C          64.4819   91.7001   11.7648 C.3     1  UNL1        0.0978
     31 C          62.8489   90.1586   10.4583 C.3     1  UNL1        0.0724
     32 C          61.3590   90.0802   10.3022 C.3     1  UNL1        0.0160
     33 C          60.1561   89.7137    9.4846 C.3     1  UNL1        0.0014
     34 C          59.9817   90.3109   10.8495 C.3     1  UNL1        0.0014
@<TRIPOS>BOND
     1    21    22   ar
     2    22    23   ar
     3    23    24   ar
     4    24    25   ar
     5    25    26   ar
     6    25    27    1
     7    27    28    1
     8    28    29    1
     9    29    30    1
    10    30    20    1
    11    20    31    1
    12    31    32    1
    13    32    33    1
    14    33    34    1
    15    20    19    1
    16     1    19    1
    17     1     2    1
    18     2     3    1
    19     3     4   ar
    20     4     5   ar
    21     5     6   ar
    22     6     7   ar
    23     7     8   ar
    24     8    12    1
    25    12    13    1
    26    13    14    1
    27    14    15    1
    28    15    16    1
    29    16    17    1
    30     4     9    1
    31     9    10    1
    32    26    21   ar
    33    34    32    1
    34    10     1    1
    35    30    24    1
    36     8     3   ar
    37    17    12    1
    38    15    18    1
    39    10    11    1
@<TRIPOS>MOLECULE
*****
 34 39 0 0 0
SMALL
GASTEIGER

@<TRIPOS>ATOM
      1 C          61.6738   87.2222   10.7684 C.3     1  UNL1        0.0749
      2 C          62.2712   86.3226   11.8095 C.3     1  UNL1        0.0444
      3 C          63.0081   85.0831   11.3963 C.ar    1  UNL1       -0.0101
      4 C          63.1475   84.7432    9.9420 C.ar    1  UNL1       -0.0091
      5 C          63.8843   83.5037    9.5288 C.ar    1  UNL1       -0.0032
      6 C          64.4817   82.6042   10.5699 C.ar    1  UNL1        0.0010
      7 C          64.3423   82.9441   12.0242 C.ar    1  UNL1        0.0142
      8 C          63.6055   84.1835   12.4374 C.ar    1  UNL1        0.0436
      9 C          62.5501   85.6427    8.9009 C.3     1  UNL1        0.0954
     10 N          61.8132   86.8822    9.3141 N.3     1  UNL1       -0.2934
     11 H          60.8683   86.8020    8.9385 H       1  UNL1        0.1236
     12 N          63.4661   84.5235   13.8917 N.pl3   1  UNL1       -0.3049
     13 C          62.4135   83.8502   14.7217 C.3     1  UNL1        0.1079
     14 C          62.2741   84.1902   16.1760 C.3     1  UNL1        0.0903
     15 N          63.1872   85.2034   16.8003 N.3     1  UNL1       -0.2946
     16 C          64.2397   85.8767   15.9703 C.3     1  UNL1        0.0903
     17 C          64.3791   85.5367   14.5160 C.3     1  UNL1        0.1079
     18 H          63.6715   84.7321   17.5644 H       1  UNL1        0.1233
     19 C          60.9370   88.4617   11.1816 C.3     1  UNL1        0.0886
     20 N          61.2452   89.7727   10.5211 N.3     1  UNL1       -0.2679
     21 C          64.0511   90.3329   15.1105 C.ar    1  UNL1        0.0203
     22 C          62.8108   89.5774   14.7354 C.ar    1  UNL1        0.0985
     23 N          62.2889   89.6425   13.3306 N.ar    1  UNL1       -0.2471
     24 C          63.0074   90.4631   12.3009 C.ar    1  UNL1        0.0695
     25 C          64.2477   91.2187   12.6760 C.ar    1  UNL1       -0.0073
     26 C          64.7696   91.1536   14.0808 C.ar    1  UNL1       -0.0015
     27 C          64.9662   92.0394   11.6463 C.3     1  UNL1        0.0277
     28 C          64.4443   92.1045   10.2415 C.3     1  UNL1        0.0065
     29 C          63.2039   91.3489    9.8664 C.3     1  UNL1        0.0224
     30 C          62.4855   90.5283   10.8961 C.3     1  UNL1        0.0978
     31 C          60.3130   90.3281    9.4855 C.3     1  UNL1        0.0724
     32 C          59.8326   89.4558    8.3636 C.3     1  UNL1        0.0160
     33 C          59.3084   88.1377    7.8760 C.3     1  UNL1        0.0014
     34 C          59.5249   89.2631    6.9083 C.3     1  UNL1        0.0014
@<TRIPOS>BOND
     1    21    22   ar
     2    22    23   ar
     3    23    24   ar
     4    24    25   ar
     5    25    26   ar
     6    25    27    1
     7    27    28    1
     8    28    29    1
     9    29    30    1
    10    30    20    1
    11    20    31    1
    12    31    32    1
    13    32    33    1
    14    33    34    1
    15    20    19    1
    16     1    19    1
    17     1     2    1
    18     2     3    1
    19     3     4   ar
    20     4     5   ar
    21     5     6   ar
    22     6     7   ar
    23     7     8   ar
    24     8    12    1
    25    12    13    1
    26    13    14    1
    27    14    15    1
    28    15    16    1
    29    16    17    1
    30     4     9    1
    31     9    10    1
    32    26    21   ar
    33    34    32    1
    34    10     1    1
    35    30    24    1
    36     8     3   ar
    37    17    12    1
    38    15    18    1
    39    10    11    1
@<TRIPOS>MOLECULE
*****
 34 39 0 0 0
SMALL
GASTEIGER

@<TRIPOS>ATOM
      1 C          64.1425   91.2119   12.0807 C.3     1  UNL1        0.0749
      2 C          63.8818   89.7673   12.3890 C.3     1  UNL1        0.0444
      3 C          62.9839   88.9605   11.4984 C.ar    1  UNL1       -0.0101
      4 C          62.3468   89.5984   10.2997 C.ar    1  UNL1       -0.0091
      5 C          61.4489   88.7917    9.4092 C.ar    1  UNL1       -0.0032
      6 C          61.1883   87.3470    9.7174 C.ar    1  UNL1        0.0010
      7 C          61.8254   86.7091   10.9162 C.ar    1  UNL1        0.0142
      8 C          62.7232   87.5159   11.8067 C.ar    1  UNL1        0.0436
      9 C          62.6074   91.0431    9.9914 C.3     1  UNL1        0.0954
     10 N          63.5053   91.8498   10.8819 N.3     1  UNL1       -0.2934
     11 H          62.9515   92.6345   11.2253 H       1  UNL1        0.1236
     12 N          63.3604   86.8780   13.0055 N.pl3   1  UNL1       -0.3049
     13 C          63.9314   87.7347   14.0964 C.3     1  UNL1        0.1079
     14 C          64.5685   87.0969   15.2951 C.3     1  UNL1        0.0903
     15 N          64.6348   85.6022   15.4032 N.3     1  UNL1       -0.2946
     16 C          64.0638   84.7454   14.3123 C.3     1  UNL1        0.0903
     17 C          63.4266   85.3833   13.1135 C.3     1  UNL1        0.1079
     18 H          64.1485   85.3473   16.2628 H       1  UNL1        0.1233
     19 C          65.0403   92.0186   12.9712 C.3     1  UNL1        0.0886
     20 N          66.5197   92.0394   12.7242 N.3     1  UNL1       -0.2679
     21 C          66.4285   96.8554   10.2650 C.ar    1  UNL1        0.0203
     22 C          65.8930   96.3433   11.5691 C.ar    1  UNL1        0.0985
     23 N          66.1019   94.9086   11.9542 N.ar    1  UNL1       -0.2471
     24 C          66.8463   93.9862   11.0350 C.ar    1  UNL1        0.0695
     25 C          67.3818   94.4983    9.7308 C.ar    1  UNL1       -0.0073
     26 C          67.1729   95.9329    9.3458 C.ar    1  UNL1       -0.0015
     27 C          68.1262   93.5758    8.8116 C.3     1  UNL1        0.0277
     28 C          68.3351   92.1412    9.1966 C.3     1  UNL1        0.0065
     29 C          67.7996   91.6291   10.5009 C.3     1  UNL1        0.0224
     30 C          67.0552   92.5516   11.4200 C.3     1  UNL1        0.0978
     31 C          67.4636   91.5480   13.7814 C.3     1  UNL1        0.0724
     32 C          67.8921   92.4645   14.8889 C.3     1  UNL1        0.0160
     33 C          67.5784   93.2131   16.1503 C.3     1  UNL1        0.0014
     34 C          68.9482   93.3032   15.5456 C.3     1  UNL1        0.0014
@<TRIPOS>BOND
     1    21    22   ar
     2    22    23   ar
     3    23    24   ar
     4    24    25   ar
     5    25    26   ar
     6    25    27    1
     7    27    28    1
     8    28    29    1
     9    29    30    1
    10    30    20    1
    11    20    31    1
    12    31    32    1
    13    32    33    1
    14    33    34    1
    15    20    19    1
    16     1    19    1
    17     1     2    1
    18     2     3    1
    19     3     4   ar
    20     4     5   ar
    21     5     6   ar
    22     6     7   ar
    23     7     8   ar
    24     8    12    1
    25    12    13    1
    26    13    14    1
    27    14    15    1
    28    15    16    1
    29    16    17    1
    30     4     9    1
    31     9    10    1
    32    26    21   ar
    33    34    32    1
    34    10     1    1
    35    30    24    1
    36     8     3   ar
    37    17    12    1
    38    15    18    1
    39    10    11    1
@<TRIPOS>MOLECULE
*****
 34 39 0 0 0
SMALL
GASTEIGER

@<TRIPOS>ATOM
      1 C          64.3281   90.6264   12.9824 C.3     1  UNL1        0.0749
      2 C          63.5327   89.5728   12.2703 C.3     1  UNL1        0.0444
      3 C          63.4877   88.1740   12.8102 C.ar    1  UNL1       -0.0101
      4 C          64.2381   87.8289   14.0623 C.ar    1  UNL1       -0.0091
      5 C          64.1931   86.4302   14.6022 C.ar    1  UNL1       -0.0032
      6 C          63.3976   85.3766   13.8901 C.ar    1  UNL1        0.0010
      7 C          62.6472   85.7217   12.6380 C.ar    1  UNL1        0.0142
      8 C          62.6922   87.1204   12.0981 C.ar    1  UNL1        0.0436
      9 C          65.0336   88.8825   14.7744 C.3     1  UNL1        0.0954
     10 N          65.0786   90.2812   14.2345 N.3     1  UNL1       -0.2934
     11 H          66.0598   90.4976   14.0588 H       1  UNL1        0.1236
     12 N          61.9417   87.4656   10.8460 N.pl3   1  UNL1       -0.3049
     13 C          61.1834   88.7568   10.7579 C.3     1  UNL1        0.1079
     14 C          60.4330   89.1020    9.5059 C.3     1  UNL1        0.0903
     15 N          60.4408   88.1559    8.3418 N.3     1  UNL1       -0.2946
     16 C          61.1992   86.8647    8.4298 C.3     1  UNL1        0.0903
     17 C          61.9496   86.5196    9.6820 C.3     1  UNL1        0.1079
     18 H          60.8242   88.6690    7.5480 H       1  UNL1        0.1233
     19 C          64.3732   92.0251   12.4425 C.3     1  UNL1        0.0886
     20 N          65.6383   92.8254   12.5375 N.3     1  UNL1       -0.2679
     21 C          66.1816   96.5591    8.6627 C.ar    1  UNL1        0.0203
     22 C          65.2875   96.4248    9.8595 C.ar    1  UNL1        0.0985
     23 N          65.4045   95.2250   10.7522 N.ar    1  UNL1       -0.2471
     24 C          66.4155   94.1595   10.4480 C.ar    1  UNL1        0.0695
     25 C          67.3096   94.2939    9.2511 C.ar    1  UNL1       -0.0073
     26 C          67.1926   95.4937    8.3585 C.ar    1  UNL1       -0.0015
     27 C          68.3207   93.2284    8.9469 C.3     1  UNL1        0.0277
     28 C          68.4376   92.0286    9.8395 C.3     1  UNL1        0.0065
     29 C          67.5435   91.8943   11.0364 C.3     1  UNL1        0.0224
     30 C          66.5324   92.9597   11.3406 C.3     1  UNL1        0.0978
     31 C          66.0094   93.4913   13.8293 C.3     1  UNL1        0.0724
     32 C          67.1426   92.9534   14.6520 C.3     1  UNL1        0.0160
     33 C          68.4913   92.3026   14.7372 C.3     1  UNL1        0.0014
     34 C          67.7565   92.6727   15.9914 C.3     1  UNL1        0.0014
@<TRIPOS>BOND
     1    21    22   ar
     2    22    23   ar
     3    23    24   ar
     4    24    25   ar
     5    25    26   ar
     6    25    27    1
     7    27    28    1
     8    28    29    1
     9    29    30    1
    10    30    20    1
    11    20    31    1
    12    31    32    1
    13    32    33    1
    14    33    34    1
    15    20    19    1
    16     1    19    1
    17     1     2    1
    18     2     3    1
    19     3     4   ar
    20     4     5   ar
    21     5     6   ar
    22     6     7   ar
    23     7     8   ar
    24     8    12    1
    25    12    13    1
    26    13    14    1
    27    14    15    1
    28    15    16    1
    29    16    17    1
    30     4     9    1
    31     9    10    1
    32    26    21   ar
    33    34    32    1
    34    10     1    1
    35    30    24    1
    36     8     3   ar
    37    17    12    1
    38    15    18    1
    39    10    11    1
