@<TRIPOS>MOLECULE
*****
 33 36 0 0 0
SMALL
GASTEIGER

@<TRIPOS>ATOM
      1 O          59.7805   88.6818   11.9603 O.2     1  UNL1       -0.2732
      2 C          61.0035   88.3502   11.1577 C.2     1  UNL1        0.2432
      3 N          62.3133   89.0061   11.4809 N.am    1  UNL1       -0.2990
      4 H          63.1160   88.7885   10.9542 H       1  UNL1        0.1498
      5 C          60.9169   87.3628   10.0320 C.3     1  UNL1        0.1808
      6 C          60.1526   87.5469    8.7545 C.3     1  UNL1        0.0799
      7 C          60.3426   86.3157    7.9190 C.2     1  UNL1        0.0938
      8 N          61.2245   85.3707    8.6801 N.2     1  UNL1       -0.1784
      9 N          61.5794   86.0178    9.9860 N.am    1  UNL1       -0.1712
     10 C          62.4448   85.4241   11.0577 C.2     1  UNL1        0.2759
     11 O          62.7128   86.1935   12.3171 O.2     1  UNL1       -0.2701
     12 C          63.0421   84.0610   10.8701 C.3     1  UNL1        0.2113
     13 O          63.8703   83.7660    9.6547 O.3     1  UNL1       -0.3719
     14 H          63.9197   84.5581    9.0970 H       1  UNL1        0.2114
     15 C          62.8114   82.9931   11.8978 C.ar    1  UNL1        0.0131
     16 C          62.5002   83.3712   13.3156 C.ar    1  UNL1       -0.0015
     17 C          62.2695   82.3032   14.3433 C.ar    1  UNL1       -0.0002
     18 C          62.3499   80.8571   13.9531 C.ar    1  UNL1       -0.0000
     19 C          62.6611   80.4789   12.5353 C.ar    1  UNL1       -0.0002
     20 C          62.8918   81.5469   11.5077 C.ar    1  UNL1       -0.0015
     21 C          62.3999   89.9936   12.6067 C.3     1  UNL1        0.1179
     22 C          63.6980   90.6864   12.8984 C.ar    1  UNL1        0.0161
     23 C          64.2072   91.7477   11.9688 C.ar    1  UNL1        0.0103
     24 C          65.5052   92.4405   12.2605 C.ar    1  UNL1        0.0575
     25 CL         66.0144   93.5018   11.3308 Cl      1  UNL1       -0.0823
     26 C          66.2940   92.0720   13.4820 C.ar    1  UNL1        0.0129
     27 C          65.7848   91.0107   14.4117 C.ar    1  UNL1        0.0199
     28 C          64.4868   90.3179   14.1199 C.ar    1  UNL1        0.0839
     29 N          63.9776   89.2566   15.0496 N.ar    1  UNL1       -0.1889
     30 C          63.2105   89.4891   16.3175 C.ar    1  UNL1        0.2258
     31 N          62.9049   88.1526   16.9261 N.ar    1  UNL1       -0.1045
     32 N          63.4831   87.0940   16.0343 N.ar    1  UNL1       -0.0222
     33 N          64.1460   87.7763   14.8746 N.ar    1  UNL1       -0.0385
@<TRIPOS>BOND
     1     1     2    2
     2     2     3   am
     3     3    21    1
     4    21    22    1
     5    22    23   ar
     6    23    24   ar
     7    24    25    1
     8    24    26   ar
     9    26    27   ar
    10    27    28   ar
    11    28    29    1
    12    29    30   ar
    13    30    31   ar
    14    31    32   ar
    15    32    33   ar
    16     5     2    1
    17     5     6    1
    18     6     7    1
    19     7     8    2
    20     8     9    1
    21     9    10   am
    22    10    11    2
    23    10    12    1
    24    12    13    1
    25    12    15    1
    26    15    16   ar
    27    16    17   ar
    28    17    18   ar
    29    18    19   ar
    30    19    20   ar
    31    28    22   ar
    32    33    29   ar
    33     9     5    1
    34    20    15   ar
    35     3     4    1
    36    13    14    1
@<TRIPOS>MOLECULE
*****
 33 36 0 0 0
SMALL
GASTEIGER

@<TRIPOS>ATOM
      1 O          60.8342   88.8692   11.6663 O.2     1  UNL1       -0.2732
      2 C          62.3174   88.8672   11.8906 C.2     1  UNL1        0.2432
      3 N          63.0223   87.5881   12.2330 N.am    1  UNL1       -0.2990
      4 H          63.9958   87.5868   12.3802 H       1  UNL1        0.1498
      5 C          63.0955   90.1441   11.7726 C.3     1  UNL1        0.1808
      6 C          63.4067   90.8724   10.4987 C.3     1  UNL1        0.0799
      7 C          64.2026   92.0953   10.8465 C.2     1  UNL1        0.0938
      8 N          64.3834   92.1227   12.3353 N.2     1  UNL1       -0.1784
      9 N          63.6992   90.9168   12.9076 N.am    1  UNL1       -0.1712
     10 C          63.6307   90.5484   14.3601 C.2     1  UNL1        0.2759
     11 O          62.9071   89.3051   14.7851 O.2     1  UNL1       -0.2701
     12 C          64.2857   91.4232   15.3876 C.3     1  UNL1        0.2113
     13 O          63.4988   91.9132   16.5668 O.3     1  UNL1       -0.3719
     14 H          62.5911   91.5755   16.5127 H       1  UNL1        0.2114
     15 C          65.7275   91.8078   15.2358 C.ar    1  UNL1        0.0131
     16 C          66.5286   91.2758   14.0846 C.ar    1  UNL1       -0.0015
     17 C          67.9704   91.6606   13.9328 C.ar    1  UNL1       -0.0002
     18 C          68.6112   92.5773   14.9323 C.ar    1  UNL1       -0.0000
     19 C          67.8102   93.1093   16.0835 C.ar    1  UNL1       -0.0002
     20 C          66.3683   92.7246   16.2352 C.ar    1  UNL1       -0.0015
     21 C          62.2442   86.3112   12.3511 C.3     1  UNL1        0.1179
     22 C          62.9645   84.9969   12.4122 C.ar    1  UNL1        0.0161
     23 C          63.3111   84.2720   11.1455 C.ar    1  UNL1        0.0103
     24 C          64.0314   82.9577   11.2067 C.ar    1  UNL1        0.0575
     25 CL         64.3781   82.2328    9.9400 Cl      1  UNL1       -0.0823
     26 C          64.4050   82.3683   12.5344 C.ar    1  UNL1        0.0129
     27 C          64.0583   83.0931   13.8010 C.ar    1  UNL1        0.0199
     28 C          63.3381   84.4074   13.7399 C.ar    1  UNL1        0.0839
     29 N          62.9914   85.1323   15.0066 N.ar    1  UNL1       -0.1889
     30 C          63.8771   86.0928   15.7435 C.ar    1  UNL1        0.2258
     31 N          63.1312   86.5780   16.9510 N.ar    1  UNL1       -0.1045
     32 N          61.7845   85.9175   16.9604 N.ar    1  UNL1       -0.0222
     33 N          61.6981   85.0240   15.7587 N.ar    1  UNL1       -0.0385
@<TRIPOS>BOND
     1     1     2    2
     2     2     3   am
     3     3    21    1
     4    21    22    1
     5    22    23   ar
     6    23    24   ar
     7    24    25    1
     8    24    26   ar
     9    26    27   ar
    10    27    28   ar
    11    28    29    1
    12    29    30   ar
    13    30    31   ar
    14    31    32   ar
    15    32    33   ar
    16     5     2    1
    17     5     6    1
    18     6     7    1
    19     7     8    2
    20     8     9    1
    21     9    10   am
    22    10    11    2
    23    10    12    1
    24    12    13    1
    25    12    15    1
    26    15    16   ar
    27    16    17   ar
    28    17    18   ar
    29    18    19   ar
    30    19    20   ar
    31    28    22   ar
    32    33    29   ar
    33     9     5    1
    34    20    15   ar
    35     3     4    1
    36    13    14    1
@<TRIPOS>MOLECULE
*****
 33 36 0 0 0
SMALL
GASTEIGER

@<TRIPOS>ATOM
      1 O          63.2667   84.8098    8.9615 O.2     1  UNL1       -0.2732
      2 C          62.4169   85.4692   10.0070 C.2     1  UNL1        0.2432
      3 N          62.5861   85.1027   11.4517 N.am    1  UNL1       -0.2990
      4 H          62.0284   85.5355   12.1379 H       1  UNL1        0.1498
      5 C          61.3979   86.4949    9.6078 C.3     1  UNL1        0.1808
      6 C          60.2909   86.2981    8.6149 C.3     1  UNL1        0.0799
      7 C          59.5158   87.5792    8.5249 C.2     1  UNL1        0.0938
      8 N          60.1439   88.5677    9.4621 N.2     1  UNL1       -0.1784
      9 N          61.3071   87.8976   10.1313 N.am    1  UNL1       -0.1712
     10 C          62.2192   88.5208   11.1460 C.2     1  UNL1        0.2759
     11 O          63.3465   87.7230   11.7313 O.2     1  UNL1       -0.2701
     12 C          62.0041   89.9419   11.5754 C.3     1  UNL1        0.2113
     13 O          60.6164   90.4402   11.8510 O.3     1  UNL1       -0.3719
     14 H          59.9803   89.7226   11.7051 H       1  UNL1        0.2114
     15 C          63.1767   90.8646   11.7292 C.ar    1  UNL1        0.0131
     16 C          63.6948   91.6232   10.5434 C.ar    1  UNL1       -0.0015
     17 C          64.8674   92.5458   10.6973 C.ar    1  UNL1       -0.0002
     18 C          65.5219   92.7099   12.0370 C.ar    1  UNL1       -0.0000
     19 C          65.0038   91.9513   13.2228 C.ar    1  UNL1       -0.0002
     20 C          63.8312   91.0286   13.0689 C.ar    1  UNL1       -0.0015
     21 C          63.6051   84.0769   11.8509 C.3     1  UNL1        0.1179
     22 C          63.1619   82.7256   12.3279 C.ar    1  UNL1        0.0161
     23 C          63.1115   81.5718   11.3708 C.ar    1  UNL1        0.0103
     24 C          62.6683   80.2205   11.8478 C.ar    1  UNL1        0.0575
     25 CL         62.6178   79.0666   10.8906 Cl      1  UNL1       -0.0823
     26 C          62.2756   80.0230   13.2819 C.ar    1  UNL1        0.0129
     27 C          62.3261   81.1768   14.2391 C.ar    1  UNL1        0.0199
     28 C          62.7693   82.5281   13.7621 C.ar    1  UNL1        0.0839
     29 N          62.8198   83.6820   14.7192 N.ar    1  UNL1       -0.1889
     30 C          64.0592   84.2737   15.3223 C.ar    1  UNL1        0.2258
     31 N          63.6451   85.4041   16.2171 N.ar    1  UNL1       -0.1045
     32 N          62.1497   85.5110   16.1670 N.ar    1  UNL1       -0.0222
     33 N          61.6397   84.4467   15.2413 N.ar    1  UNL1       -0.0385
@<TRIPOS>BOND
     1     1     2    2
     2     2     3   am
     3     3    21    1
     4    21    22    1
     5    22    23   ar
     6    23    24   ar
     7    24    25    1
     8    24    26   ar
     9    26    27   ar
    10    27    28   ar
    11    28    29    1
    12    29    30   ar
    13    30    31   ar
    14    31    32   ar
    15    32    33   ar
    16     5     2    1
    17     5     6    1
    18     6     7    1
    19     7     8    2
    20     8     9    1
    21     9    10   am
    22    10    11    2
    23    10    12    1
    24    12    13    1
    25    12    15    1
    26    15    16   ar
    27    16    17   ar
    28    17    18   ar
    29    18    19   ar
    30    19    20   ar
    31    28    22   ar
    32    33    29   ar
    33     9     5    1
    34    20    15   ar
    35     3     4    1
    36    13    14    1
@<TRIPOS>MOLECULE
*****
 33 36 0 0 0
SMALL
GASTEIGER

@<TRIPOS>ATOM
      1 O          61.5550   90.4697   11.8173 O.2     1  UNL1       -0.2732
      2 C          62.5692   89.6938   12.6043 C.2     1  UNL1        0.2432
      3 N          62.7519   88.2265   12.3518 N.am    1  UNL1       -0.2990
      4 H          63.4176   87.7173   12.8683 H       1  UNL1        0.1498
      5 C          63.4008   90.3852   13.6437 C.3     1  UNL1        0.1808
      6 C          63.3866   90.1009   15.1165 C.3     1  UNL1        0.0799
      7 C          64.3696   91.0223   15.7759 C.2     1  UNL1        0.0938
      8 N          64.9912   91.8761   14.7106 N.2     1  UNL1       -0.1784
      9 N          64.3925   91.4823   13.3929 N.am    1  UNL1       -0.1712
     10 C          64.7267   92.0806   12.0586 C.2     1  UNL1        0.2759
     11 O          64.0426   91.5818   10.8204 O.2     1  UNL1       -0.2701
     12 C          65.7452   93.1777   11.9625 C.3     1  UNL1        0.2113
     13 O          65.8754   94.1793   13.0714 O.3     1  UNL1       -0.3719
     14 H          65.2324   93.9754   13.7685 H       1  UNL1        0.2114
     15 C          66.6332   93.2732   10.7574 C.ar    1  UNL1        0.0131
     16 C          66.5401   94.4635    9.8495 C.ar    1  UNL1       -0.0015
     17 C          67.4283   94.5589    8.6445 C.ar    1  UNL1       -0.0002
     18 C          68.4094   93.4639    8.3474 C.ar    1  UNL1       -0.0000
     19 C          68.5025   92.2735    9.2553 C.ar    1  UNL1       -0.0002
     20 C          67.6144   92.1782   10.4603 C.ar    1  UNL1       -0.0015
     21 C          61.9204   87.5351   11.3123 C.3     1  UNL1        0.1179
     22 C          62.4378   86.2989   10.6384 C.ar    1  UNL1        0.0161
     23 C          62.4051   86.1905    9.1427 C.ar    1  UNL1        0.0103
     24 C          62.9224   84.9544    8.4688 C.ar    1  UNL1        0.0575
     25 CL         62.8897   84.8460    6.9730 Cl      1  UNL1       -0.0823
     26 C          63.4725   83.8265    9.2906 C.ar    1  UNL1        0.0129
     27 C          63.5052   83.9349   10.7863 C.ar    1  UNL1        0.0199
     28 C          62.9879   85.1710   11.4602 C.ar    1  UNL1        0.0839
     29 N          63.0206   85.2794   12.9560 N.ar    1  UNL1       -0.1889
     30 C          62.2494   84.4261   13.9189 C.ar    1  UNL1        0.2258
     31 N          62.5825   84.8795   15.3094 N.ar    1  UNL1       -0.1045
     32 N          63.5594   86.0131   15.2059 N.ar    1  UNL1       -0.0222
     33 N          63.8302   86.2602   13.7514 N.ar    1  UNL1       -0.0385
@<TRIPOS>BOND
     1     1     2    2
     2     2     3   am
     3     3    21    1
     4    21    22    1
     5    22    23   ar
     6    23    24   ar
     7    24    25    1
     8    24    26   ar
     9    26    27   ar
    10    27    28   ar
    11    28    29    1
    12    29    30   ar
    13    30    31   ar
    14    31    32   ar
    15    32    33   ar
    16     5     2    1
    17     5     6    1
    18     6     7    1
    19     7     8    2
    20     8     9    1
    21     9    10   am
    22    10    11    2
    23    10    12    1
    24    12    13    1
    25    12    15    1
    26    15    16   ar
    27    16    17   ar
    28    17    18   ar
    29    18    19   ar
    30    19    20   ar
    31    28    22   ar
    32    33    29   ar
    33     9     5    1
    34    20    15   ar
    35     3     4    1
    36    13    14    1
@<TRIPOS>MOLECULE
*****
 33 36 0 0 0
SMALL
GASTEIGER

@<TRIPOS>ATOM
      1 O          62.8178   84.9179    8.7844 O.2     1  UNL1       -0.2732
      2 C          61.7929   85.6574    9.5924 C.2     1  UNL1        0.2432
      3 N          61.5848   85.3117   11.0372 N.am    1  UNL1       -0.2990
      4 H          60.9121   85.7970   11.5675 H       1  UNL1        0.1498
      5 C          60.9762   86.7425    8.9557 C.3     1  UNL1        0.1808
      6 C          59.9791   86.5618    7.8497 C.3     1  UNL1        0.0799
      7 C          59.3998   87.9064    7.5236 C.2     1  UNL1        0.0938
      8 N          60.0389   88.9181    8.4281 N.2     1  UNL1       -0.1784
      9 N          61.0131   88.1987    9.3131 N.am    1  UNL1       -0.1712
     10 C          61.8732   88.8257   10.3701 C.2     1  UNL1        0.2759
     11 O          62.8050   87.9746   11.1809 O.2     1  UNL1       -0.2701
     12 C          61.8017   90.3036   10.6162 C.3     1  UNL1        0.2113
     13 O          60.5237   91.0457   10.3591 O.3     1  UNL1       -0.3719
     14 H          59.8488   90.4264   10.0400 H       1  UNL1        0.2114
     15 C          63.0081   91.0394   11.1194 C.ar    1  UNL1        0.0131
     16 C          63.4039   90.9328   12.5623 C.ar    1  UNL1       -0.0015
     17 C          64.6103   91.6686   13.0653 C.ar    1  UNL1       -0.0002
     18 C          65.4209   92.5111   12.1256 C.ar    1  UNL1       -0.0000
     19 C          65.0250   92.6178   10.6827 C.ar    1  UNL1       -0.0002
     20 C          63.8186   91.8819   10.1796 C.ar    1  UNL1       -0.0015
     21 C          62.4015   84.2266   11.6739 C.3     1  UNL1        0.1179
     22 C          63.0894   84.4760   12.9834 C.ar    1  UNL1        0.0161
     23 C          63.5858   85.8508   13.3199 C.ar    1  UNL1        0.0103
     24 C          64.2737   86.1001   14.6294 C.ar    1  UNL1        0.0575
     25 CL         64.7701   87.4750   14.9660 Cl      1  UNL1       -0.0823
     26 C          64.4651   84.9746   15.6023 C.ar    1  UNL1        0.0129
     27 C          63.9686   83.5997   15.2657 C.ar    1  UNL1        0.0199
     28 C          63.2808   83.3504   13.9563 C.ar    1  UNL1        0.0839
     29 N          62.7843   81.9755   13.6197 N.ar    1  UNL1       -0.1889
     30 C          61.5710   81.3101   14.1983 C.ar    1  UNL1        0.2258
     31 N          61.4508   79.9480   13.5816 N.ar    1  UNL1       -0.1045
     32 N          62.5900   79.7716   12.6218 N.ar    1  UNL1       -0.0222
     33 N          63.4141   81.0247   12.6453 N.ar    1  UNL1       -0.0385
@<TRIPOS>BOND
     1     1     2    2
     2     2     3   am
     3     3    21    1
     4    21    22    1
     5    22    23   ar
     6    23    24   ar
     7    24    25    1
     8    24    26   ar
     9    26    27   ar
    10    27    28   ar
    11    28    29    1
    12    29    30   ar
    13    30    31   ar
    14    31    32   ar
    15    32    33   ar
    16     5     2    1
    17     5     6    1
    18     6     7    1
    19     7     8    2
    20     8     9    1
    21     9    10   am
    22    10    11    2
    23    10    12    1
    24    12    13    1
    25    12    15    1
    26    15    16   ar
    27    16    17   ar
    28    17    18   ar
    29    18    19   ar
    30    19    20   ar
    31    28    22   ar
    32    33    29   ar
    33     9     5    1
    34    20    15   ar
    35     3     4    1
    36    13    14    1
@<TRIPOS>MOLECULE
*****
 33 36 0 0 0
SMALL
GASTEIGER

@<TRIPOS>ATOM
      1 O          60.9155   89.3734   12.5809 O.2     1  UNL1       -0.2732
      2 C          61.7609   89.0743   11.3785 C.2     1  UNL1        0.2432
      3 N          62.8666   90.0096   10.9875 N.am    1  UNL1       -0.2990
      4 H          63.4215   89.8132   10.1984 H       1  UNL1        0.1498
      5 C          61.5007   87.8399   10.5670 C.3     1  UNL1        0.1808
      6 C          61.9993   86.4595   10.8771 C.3     1  UNL1        0.0799
      7 C          61.5030   85.5356    9.8048 C.2     1  UNL1        0.0938
      8 N          60.6976   86.3449    8.8319 N.2     1  UNL1       -0.1784
      9 N          60.6962   87.7690    9.3030 N.am    1  UNL1       -0.1712
     10 C          60.0107   88.9201    8.6285 C.2     1  UNL1        0.2759
     11 O          60.0978   90.2958    9.2200 O.2     1  UNL1       -0.2701
     12 C          59.2380   88.6956    7.3625 C.3     1  UNL1        0.2113
     13 O          58.5876   87.3685    7.1063 O.3     1  UNL1       -0.3719
     14 H          58.7623   86.7734    7.8521 H       1  UNL1        0.2114
     15 C          59.1159   89.7981    6.3529 C.ar    1  UNL1        0.0131
     16 C          60.3458   90.3614    5.7049 C.ar    1  UNL1       -0.0015
     17 C          60.2236   91.4640    4.6953 C.ar    1  UNL1       -0.0002
     18 C          58.8714   92.0033    4.3336 C.ar    1  UNL1       -0.0000
     19 C          57.6415   91.4400    4.9816 C.ar    1  UNL1       -0.0002
     20 C          57.7637   90.3374    5.9912 C.ar    1  UNL1       -0.0015
     21 C          63.1268   91.2440   11.7990 C.3     1  UNL1        0.1179
     22 C          64.5349   91.7062   12.0307 C.ar    1  UNL1        0.0161
     23 C          65.3092   92.3412   10.9140 C.ar    1  UNL1        0.0103
     24 C          66.7172   92.8034   11.1457 C.ar    1  UNL1        0.0575
     25 CL         67.4916   93.4385   10.0289 Cl      1  UNL1       -0.0823
     26 C          67.3510   92.6306   12.4943 C.ar    1  UNL1        0.0129
     27 C          66.5767   91.9956   13.6110 C.ar    1  UNL1        0.0199
     28 C          65.1686   91.5334   13.3792 C.ar    1  UNL1        0.0839
     29 N          64.3942   90.8984   14.4960 N.ar    1  UNL1       -0.1889
     30 C          64.0231   89.4487   14.5986 C.ar    1  UNL1        0.2258
     31 N          63.2546   89.2560   15.8723 N.ar    1  UNL1       -0.1045
     32 N          63.1506   90.5866   16.5568 N.ar    1  UNL1       -0.0222
     33 N          63.8550   91.6017   15.7063 N.ar    1  UNL1       -0.0385
@<TRIPOS>BOND
     1     1     2    2
     2     2     3   am
     3     3    21    1
     4    21    22    1
     5    22    23   ar
     6    23    24   ar
     7    24    25    1
     8    24    26   ar
     9    26    27   ar
    10    27    28   ar
    11    28    29    1
    12    29    30   ar
    13    30    31   ar
    14    31    32   ar
    15    32    33   ar
    16     5     2    1
    17     5     6    1
    18     6     7    1
    19     7     8    2
    20     8     9    1
    21     9    10   am
    22    10    11    2
    23    10    12    1
    24    12    13    1
    25    12    15    1
    26    15    16   ar
    27    16    17   ar
    28    17    18   ar
    29    18    19   ar
    30    19    20   ar
    31    28    22   ar
    32    33    29   ar
    33     9     5    1
    34    20    15   ar
    35     3     4    1
    36    13    14    1
@<TRIPOS>MOLECULE
*****
 33 36 0 0 0
SMALL
GASTEIGER

@<TRIPOS>ATOM
      1 O          61.6546   89.8978   12.9742 O.2     1  UNL1       -0.2732
      2 C          63.0236   89.5792   13.4980 C.2     1  UNL1        0.2432
      3 N          63.7069   88.3086   13.0870 N.am    1  UNL1       -0.2990
      4 H          64.6054   88.0995   13.4307 H       1  UNL1        0.1498
      5 C          63.7092   90.5310   14.4328 C.3     1  UNL1        0.1808
      6 C          63.6053   90.5257   15.9292 C.3     1  UNL1        0.0799
      7 C          64.4511   91.6466   16.4566 C.2     1  UNL1        0.0938
      8 N          65.0777   92.3447   15.2861 N.2     1  UNL1       -0.1784
      9 N          64.6193   91.6552   14.0354 N.am    1  UNL1       -0.1712
     10 C          65.0034   92.0250   12.6333 C.2     1  UNL1        0.2759
     11 O          64.4630   91.2391   11.4756 O.2     1  UNL1       -0.2701
     12 C          65.9279   93.1807   12.3890 C.3     1  UNL1        0.2113
     13 O          66.0921   94.2438   13.4344 O.3     1  UNL1       -0.3719
     14 H          65.5344   94.0335   14.1997 H       1  UNL1        0.2114
     15 C          66.6882   93.2732   11.0993 C.ar    1  UNL1        0.0131
     16 C          66.4809   94.4473   10.1890 C.ar    1  UNL1       -0.0015
     17 C          67.2412   94.5397    8.8993 C.ar    1  UNL1       -0.0002
     18 C          68.2088   93.4582    8.5198 C.ar    1  UNL1       -0.0000
     19 C          68.4161   92.2841    9.4301 C.ar    1  UNL1       -0.0002
     20 C          67.6558   92.1917   10.7198 C.ar    1  UNL1       -0.0015
     21 C          63.0212   87.3568   12.1522 C.3     1  UNL1        0.1179
     22 C          63.0937   85.8792   12.4000 C.ar    1  UNL1        0.0161
     23 C          63.6495   85.3621   13.6937 C.ar    1  UNL1        0.0103
     24 C          63.7220   83.8845   13.9415 C.ar    1  UNL1        0.0575
     25 CL         64.2778   83.3673   15.2352 Cl      1  UNL1       -0.0823
     26 C          63.2386   82.9240   12.8957 C.ar    1  UNL1        0.0129
     27 C          62.6828   83.4411   11.6020 C.ar    1  UNL1        0.0199
     28 C          62.6103   84.9187   11.3542 C.ar    1  UNL1        0.0839
     29 N          62.0545   85.4359   10.0605 N.ar    1  UNL1       -0.1889
     30 C          62.6725   85.2653    8.7044 C.ar    1  UNL1        0.2258
     31 N          61.7830   85.9384    7.7016 N.ar    1  UNL1       -0.1045
     32 N          60.6151   86.5250    8.4379 N.ar    1  UNL1       -0.0222
     33 N          60.7829   86.2144    9.8957 N.ar    1  UNL1       -0.0385
@<TRIPOS>BOND
     1     1     2    2
     2     2     3   am
     3     3    21    1
     4    21    22    1
     5    22    23   ar
     6    23    24   ar
     7    24    25    1
     8    24    26   ar
     9    26    27   ar
    10    27    28   ar
    11    28    29    1
    12    29    30   ar
    13    30    31   ar
    14    31    32   ar
    15    32    33   ar
    16     5     2    1
    17     5     6    1
    18     6     7    1
    19     7     8    2
    20     8     9    1
    21     9    10   am
    22    10    11    2
    23    10    12    1
    24    12    13    1
    25    12    15    1
    26    15    16   ar
    27    16    17   ar
    28    17    18   ar
    29    18    19   ar
    30    19    20   ar
    31    28    22   ar
    32    33    29   ar
    33     9     5    1
    34    20    15   ar
    35     3     4    1
    36    13    14    1
@<TRIPOS>MOLECULE
*****
 33 36 0 0 0
SMALL
GASTEIGER

@<TRIPOS>ATOM
      1 O          63.6298   91.3096   15.7437 O.2     1  UNL1       -0.2732
      2 C          64.9638   91.0553   15.1066 C.2     1  UNL1        0.2432
      3 N          65.2258   89.7533   14.4093 N.am    1  UNL1       -0.2990
      4 H          66.1013   89.5863   13.9911 H       1  UNL1        0.1498
      5 C          66.0356   92.1028   15.1668 C.3     1  UNL1        0.1808
      6 C          66.9570   92.3561   16.3231 C.3     1  UNL1        0.0799
      7 C          67.8652   93.4908   15.9522 C.2     1  UNL1        0.0938
      8 N          67.5051   93.9388   14.5667 N.2     1  UNL1       -0.1784
      9 N          66.3744   93.0810   14.0813 N.am    1  UNL1       -0.1712
     10 C          65.7007   93.1834   12.7450 C.2     1  UNL1        0.2759
     11 O          64.5774   92.2519   12.3981 O.2     1  UNL1       -0.2701
     12 C          66.1504   94.2173   11.7556 C.3     1  UNL1        0.2113
     13 O          65.7855   95.6581   11.9584 O.3     1  UNL1       -0.3719
     14 H          65.2618   95.7479   12.7699 H       1  UNL1        0.2114
     15 C          66.9649   93.8105   10.5636 C.ar    1  UNL1        0.0131
     16 C          67.5652   92.4374   10.4986 C.ar    1  UNL1       -0.0015
     17 C          68.3797   92.0306    9.3065 C.ar    1  UNL1       -0.0002
     18 C          68.5938   92.9969    8.1794 C.ar    1  UNL1       -0.0000
     19 C          67.9934   94.3700    8.2443 C.ar    1  UNL1       -0.0002
     20 C          67.1790   94.7768    9.4364 C.ar    1  UNL1       -0.0015
     21 C          64.1539   88.7057   14.3491 C.3     1  UNL1        0.1179
     22 C          63.4795   88.3967   13.0453 C.ar    1  UNL1        0.0161
     23 C          63.1087   89.5096   12.1104 C.ar    1  UNL1        0.0103
     24 C          62.4344   89.2005   10.8067 C.ar    1  UNL1        0.0575
     25 CL         62.0636   90.3134    9.8717 Cl      1  UNL1       -0.0823
     26 C          62.1309   87.7786   10.4378 C.ar    1  UNL1        0.0129
     27 C          62.5016   86.6658   11.3727 C.ar    1  UNL1        0.0199
     28 C          63.1760   86.9748   12.6764 C.ar    1  UNL1        0.0839
     29 N          63.5468   85.8619   13.6114 N.ar    1  UNL1       -0.1889
     30 C          64.0549   84.5080   13.2129 C.ar    1  UNL1        0.2258
     31 N          64.2967   83.7170   14.4642 N.ar    1  UNL1       -0.1045
     32 N          63.9380   84.5820   15.6361 N.ar    1  UNL1       -0.0222
     33 N          63.4745   85.9076   15.1090 N.ar    1  UNL1       -0.0385
@<TRIPOS>BOND
     1     1     2    2
     2     2     3   am
     3     3    21    1
     4    21    22    1
     5    22    23   ar
     6    23    24   ar
     7    24    25    1
     8    24    26   ar
     9    26    27   ar
    10    27    28   ar
    11    28    29    1
    12    29    30   ar
    13    30    31   ar
    14    31    32   ar
    15    32    33   ar
    16     5     2    1
    17     5     6    1
    18     6     7    1
    19     7     8    2
    20     8     9    1
    21     9    10   am
    22    10    11    2
    23    10    12    1
    24    12    13    1
    25    12    15    1
    26    15    16   ar
    27    16    17   ar
    28    17    18   ar
    29    18    19   ar
    30    19    20   ar
    31    28    22   ar
    32    33    29   ar
    33     9     5    1
    34    20    15   ar
    35     3     4    1
    36    13    14    1
@<TRIPOS>MOLECULE
*****
 33 36 0 0 0
SMALL
GASTEIGER

@<TRIPOS>ATOM
      1 O          62.5918   89.0526   16.0341 O.2     1  UNL1       -0.2732
      2 C          63.6336   88.1797   15.3994 C.2     1  UNL1        0.2432
      3 N          64.7678   88.7986   14.6374 N.am    1  UNL1       -0.2990
      4 H          65.4515   88.2257   14.2208 H       1  UNL1        0.1498
      5 C          63.5411   86.6880   15.5266 C.3     1  UNL1        0.1808
      6 C          63.6157   85.9058   16.8044 C.3     1  UNL1        0.0799
      7 C          63.4785   84.4509   16.4660 C.2     1  UNL1        0.0938
      8 N          63.3192   84.3340   14.9790 N.2     1  UNL1       -0.1784
      9 N          63.3579   85.7166   14.3985 N.am    1  UNL1       -0.1712
     10 C          63.2350   86.0663   12.9450 C.2     1  UNL1        0.2759
     11 O          63.2923   87.5011   12.5114 O.2     1  UNL1       -0.2701
     12 C          63.0548   84.9812   11.9251 C.3     1  UNL1        0.2113
     13 O          63.4453   83.5707   12.2537 O.3     1  UNL1       -0.3719
     14 H          63.7938   83.5341   13.1582 H       1  UNL1        0.2114
     15 C          62.4841   85.3067   10.5766 C.ar    1  UNL1        0.0131
     16 C          63.2045   84.8759    9.3335 C.ar    1  UNL1       -0.0015
     17 C          62.6337   85.2014    7.9851 C.ar    1  UNL1       -0.0002
     18 C          61.3426   85.9577    7.8798 C.ar    1  UNL1       -0.0000
     19 C          60.6223   86.3885    9.1230 C.ar    1  UNL1       -0.0002
     20 C          61.1930   86.0629   10.4714 C.ar    1  UNL1       -0.0015
     21 C          64.8602   90.2903   14.5101 C.3     1  UNL1        0.1179
     22 C          64.6848   90.9410   13.1700 C.ar    1  UNL1        0.0161
     23 C          63.5718   90.5045   12.2642 C.ar    1  UNL1        0.0103
     24 C          63.3964   91.1552   10.9241 C.ar    1  UNL1        0.0575
     25 CL         62.2833   90.7186   10.0182 Cl      1  UNL1       -0.0823
     26 C          64.3341   92.2425   10.4899 C.ar    1  UNL1        0.0129
     27 C          65.4471   92.6790   11.3957 C.ar    1  UNL1        0.0199
     28 C          65.6225   92.0283   12.7357 C.ar    1  UNL1        0.0839
     29 N          66.7356   92.4649   13.6416 N.ar    1  UNL1       -0.1889
     30 C          66.6172   93.4351   14.7794 C.ar    1  UNL1        0.2258
     31 N          67.9709   93.5777   15.4097 N.ar    1  UNL1       -0.1045
     32 N          68.9259   92.6956   14.6614 N.ar    1  UNL1       -0.0222
     33 N          68.1624   92.0078   13.5687 N.ar    1  UNL1       -0.0385
@<TRIPOS>BOND
     1     1     2    2
     2     2     3   am
     3     3    21    1
     4    21    22    1
     5    22    23   ar
     6    23    24   ar
     7    24    25    1
     8    24    26   ar
     9    26    27   ar
    10    27    28   ar
    11    28    29    1
    12    29    30   ar
    13    30    31   ar
    14    31    32   ar
    15    32    33   ar
    16     5     2    1
    17     5     6    1
    18     6     7    1
    19     7     8    2
    20     8     9    1
    21     9    10   am
    22    10    11    2
    23    10    12    1
    24    12    13    1
    25    12    15    1
    26    15    16   ar
    27    16    17   ar
    28    17    18   ar
    29    18    19   ar
    30    19    20   ar
    31    28    22   ar
    32    33    29   ar
    33     9     5    1
    34    20    15   ar
    35     3     4    1
    36    13    14    1
