@<TRIPOS>MOLECULE
*****
 40 44 0 0 0
SMALL
GASTEIGER

@<TRIPOS>ATOM
      1 C          63.0250   88.0836   17.5541 C.3     1  UNL1        0.0312
      2 C          63.4893   88.2844   16.1419 C.2     1  UNL1        0.0121
      3 C          63.9917   89.6274   15.7014 C.2     1  UNL1       -0.0081
      4 C          64.4559   89.8282   14.2894 C.2     1  UNL1       -0.0194
      5 C          64.4177   88.6861   13.3176 C.2     1  UNL1        0.0425
      6 C          63.9153   87.3431   13.7582 C.2     1  UNL1        0.2231
      7 N          63.7619   86.0407   13.0301 N.2     1  UNL1       -0.0378
      8 C          63.2028   85.0349   13.9923 C.2     1  UNL1        0.3605
      9 N          63.0107   85.7157   15.3150 N.2     1  UNL1       -0.0547
     10 C          63.4510   87.1423   15.1703 C.3     1  UNL1        0.2975
     11 C          62.8907   83.6001   13.6857 C.3     1  UNL1        0.2246
     12 C          62.7734   83.1460   12.2609 C.2     1  UNL1        0.0436
     13 C          62.4612   81.7112   11.9543 C.2     1  UNL1        0.0288
     14 C          62.2664   80.7306   13.0725 C.2     1  UNL1        0.0896
     15 N          62.3836   81.1846   14.4973 N.am    1  UNL1       -0.1770
     16 C          62.6958   82.6195   14.8038 C.2     1  UNL1        0.2627
     17 O          62.8131   83.0735   16.2286 O.2     1  UNL1       -0.2719
     18 N          62.9682   84.1266   11.1427 N.pl3   1  UNL1       -0.3329
     19 H          63.8396   84.1887   10.6887 H       1  UNL1        0.1466
     20 C          61.8355   85.0127   10.7162 C.3     1  UNL1        0.1211
     21 C          62.1003   86.1954    9.8325 C.3     1  UNL1        0.1522
     22 O          62.7723   86.0044    8.5051 O.3     1  UNL1       -0.3783
     23 H          62.9673   85.0633    8.3738 H       1  UNL1        0.2109
     24 C          61.6931   87.5692   10.2762 C.ar    1  UNL1        0.0067
     25 C          62.5305   88.7567    9.9037 C.ar    1  UNL1       -0.0018
     26 C          62.1233   90.1305   10.3474 C.ar    1  UNL1        0.0006
     27 C          60.8787   90.3168   11.1637 C.ar    1  UNL1        0.0114
     28 C          60.0413   89.1294   11.5361 C.ar    1  UNL1        0.0574
     29 CL         58.7967   89.3158   12.3523 Cl      1  UNL1       -0.0823
     30 C          60.4485   87.7556   11.0924 C.ar    1  UNL1        0.0095
     31 C          64.9584   91.1712   13.8488 C.3     1  UNL1        0.0252
     32 C          64.6921   91.6506   12.4526 C.3     1  UNL1        0.0217
     33 C          65.1945   92.9935   12.0121 C.3     1  UNL1        0.0724
     34 N          65.9632   93.8571   12.9678 N.3     1  UNL1       -0.2726
     35 C          66.2295   93.3777   14.3640 C.3     1  UNL1        0.0724
     36 C          65.7271   92.0348   14.8045 C.3     1  UNL1        0.0217
     37 C          66.4657   95.2000   12.5273 C.3     1  UNL1        0.0750
     38 C          66.1088   95.7256   11.1685 C.3     1  UNL1        0.0554
     39 C          67.0652   95.5595   10.0250 C.3     1  UNL1        0.1947
     40 F          67.5935   94.1985    9.6808 F       1  UNL1       -0.2343
@<TRIPOS>BOND
     1     1     2    1
     2     2     3    2
     3     3     4    1
     4     4    31    1
     5    31    32    1
     6    32    33    1
     7    33    34    1
     8    34    37    1
     9    37    38    1
    10    38    39    1
    11    39    40    1
    12    34    35    1
    13    35    36    1
    14     4     5    2
    15     5     6    1
    16     6     7    2
    17     7     8    1
    18     8    11    1
    19    11    12    1
    20    12    18    1
    21    18    20    1
    22    20    21    1
    23    21    22    1
    24    21    24    1
    25    24    25   ar
    26    25    26   ar
    27    26    27   ar
    28    27    28   ar
    29    28    29    1
    30    28    30   ar
    31    12    13    2
    32    13    14    1
    33    14    15    2
    34    15    16    1
    35    16    17    2
    36     8     9    2
    37     9    10    1
    38    10     2    1
    39    36    31    1
    40    10     6    1
    41    16    11    1
    42    30    24   ar
    43    18    19    1
    44    22    23    1
@<TRIPOS>MOLECULE
*****
 40 44 0 0 0
SMALL
GASTEIGER

@<TRIPOS>ATOM
      1 C          61.8189   88.3538   10.2178 C.3     1  UNL1        0.0312
      2 C          62.4525   87.4776   11.2575 C.2     1  UNL1        0.0121
      3 C          62.3690   85.9852   11.1327 C.2     1  UNL1       -0.0081
      4 C          63.0025   85.1090   12.1723 C.2     1  UNL1       -0.0194
      5 C          63.7196   85.7253   13.3368 C.2     1  UNL1        0.0425
      6 C          63.8031   87.2177   13.4616 C.2     1  UNL1        0.2231
      7 N          64.4385   88.1048   14.4909 N.2     1  UNL1       -0.0378
      8 C          64.1976   89.5293   14.0873 C.2     1  UNL1        0.3605
      9 N          63.4134   89.5225   12.8086 N.2     1  UNL1       -0.0547
     10 C          63.1695   88.0939   12.4220 C.3     1  UNL1        0.2975
     11 C          64.6598   90.7468   14.8317 C.3     1  UNL1        0.2246
     12 C          65.7142   91.6334   14.2382 C.2     1  UNL1        0.0436
     13 C          66.1763   92.8509   14.9826 C.2     1  UNL1        0.0288
     14 C          65.5842   93.1818   16.3205 C.2     1  UNL1        0.0896
     15 N          64.5299   92.2951   16.9140 N.am    1  UNL1       -0.1770
     16 C          64.0677   91.0776   16.1695 C.2     1  UNL1        0.2627
     17 O          63.0134   90.1910   16.7630 O.2     1  UNL1       -0.2719
     18 N          66.3063   91.3026   12.9003 N.pl3   1  UNL1       -0.3329
     19 H          65.9568   90.5422   12.3817 H       1  UNL1        0.1466
     20 C          67.4310   92.1303   12.3525 C.3     1  UNL1        0.1211
     21 C          67.3838   92.6144   10.9336 C.3     1  UNL1        0.1522
     22 O          67.7412   91.6850    9.8117 O.3     1  UNL1       -0.3783
     23 H          67.9773   90.8167   10.1740 H       1  UNL1        0.2109
     24 C          66.9792   94.0279   10.6365 C.ar    1  UNL1        0.0067
     25 C          66.1231   94.7833   11.6094 C.ar    1  UNL1       -0.0018
     26 C          65.7186   96.1968   11.3123 C.ar    1  UNL1        0.0006
     27 C          66.1701   96.8551   10.0423 C.ar    1  UNL1        0.0114
     28 C          67.0262   96.0997    9.0695 C.ar    1  UNL1        0.0574
     29 CL         67.4778   96.7579    7.7995 Cl      1  UNL1       -0.0823
     30 C          67.4308   94.6862    9.3665 C.ar    1  UNL1        0.0095
     31 C          62.9190   83.6165   12.0475 C.3     1  UNL1        0.0252
     32 C          62.3596   82.7997   13.1744 C.3     1  UNL1        0.0217
     33 C          62.2761   81.3073   13.0497 C.3     1  UNL1        0.0724
     34 N          62.7519   80.6316   11.7979 N.3     1  UNL1       -0.2726
     35 C          63.3114   81.4483   10.6709 C.3     1  UNL1        0.0724
     36 C          63.3949   82.9407   10.7957 C.3     1  UNL1        0.0217
     37 C          62.6685   79.1391   11.6730 C.3     1  UNL1        0.0750
     38 C          62.7642   78.4930   10.3227 C.3     1  UNL1        0.0554
     39 C          63.1757   77.0552   10.2066 C.3     1  UNL1        0.1947
     40 F          64.5386   76.7047    9.6873 F       1  UNL1       -0.2343
@<TRIPOS>BOND
     1     1     2    1
     2     2     3    2
     3     3     4    1
     4     4    31    1
     5    31    32    1
     6    32    33    1
     7    33    34    1
     8    34    37    1
     9    37    38    1
    10    38    39    1
    11    39    40    1
    12    34    35    1
    13    35    36    1
    14     4     5    2
    15     5     6    1
    16     6     7    2
    17     7     8    1
    18     8    11    1
    19    11    12    1
    20    12    18    1
    21    18    20    1
    22    20    21    1
    23    21    22    1
    24    21    24    1
    25    24    25   ar
    26    25    26   ar
    27    26    27   ar
    28    27    28   ar
    29    28    29    1
    30    28    30   ar
    31    12    13    2
    32    13    14    1
    33    14    15    2
    34    15    16    1
    35    16    17    2
    36     8     9    2
    37     9    10    1
    38    10     2    1
    39    36    31    1
    40    10     6    1
    41    16    11    1
    42    30    24   ar
    43    18    19    1
    44    22    23    1
@<TRIPOS>MOLECULE
*****
 40 44 0 0 0
SMALL
GASTEIGER

@<TRIPOS>ATOM
      1 C          63.0564   88.5023   17.7287 C.3     1  UNL1        0.0312
      2 C          63.3918   87.9056   16.3939 C.2     1  UNL1        0.0121
      3 C          63.1750   86.4413   16.1512 C.2     1  UNL1       -0.0081
      4 C          63.5103   85.8447   14.8165 C.2     1  UNL1       -0.0194
      5 C          64.0624   86.7122   13.7244 C.2     1  UNL1        0.0425
      6 C          64.2792   88.1765   13.9672 C.2     1  UNL1        0.2231
      7 N          64.8051   89.2724   13.0884 N.2     1  UNL1       -0.0378
      8 C          64.7947   90.5465   13.8800 C.2     1  UNL1        0.3605
      9 N          64.2625   90.2379   15.2480 N.2     1  UNL1       -0.0547
     10 C          63.9439   88.7731   15.3019 C.3     1  UNL1        0.2975
     11 C          65.2387   91.8928   13.3897 C.3     1  UNL1        0.2246
     12 C          65.0202   92.2786   11.9567 C.2     1  UNL1        0.0436
     13 C          65.4642   93.6249   11.4665 C.2     1  UNL1        0.0288
     14 C          66.1266   94.5854   12.4091 C.2     1  UNL1        0.0896
     15 N          66.3451   94.1996   13.8421 N.am    1  UNL1       -0.1770
     16 C          65.9011   92.8533   14.3323 C.2     1  UNL1        0.2627
     17 O          66.1195   92.4675   15.7653 O.2     1  UNL1       -0.2719
     18 N          64.3578   91.3181   11.0140 N.pl3   1  UNL1       -0.3329
     19 H          64.9011   90.6720   10.5074 H       1  UNL1        0.1466
     20 C          62.8678   91.3422   10.8430 C.3     1  UNL1        0.1211
     21 C          62.0411   90.1788   11.3046 C.3     1  UNL1        0.1522
     22 O          61.6605   90.0559   12.7503 O.3     1  UNL1       -0.3783
     23 H          62.0265   90.8051   13.2458 H       1  UNL1        0.2109
     24 C          61.5950   89.1384   10.3205 C.ar    1  UNL1        0.0067
     25 C          60.3764   89.3758    9.4787 C.ar    1  UNL1       -0.0018
     26 C          59.9303   88.3354    8.4946 C.ar    1  UNL1        0.0006
     27 C          60.7028   87.0574    8.3523 C.ar    1  UNL1        0.0114
     28 C          61.9213   86.8200    9.1941 C.ar    1  UNL1        0.0574
     29 CL         62.6938   85.5421    9.0518 Cl      1  UNL1       -0.0823
     30 C          62.3674   87.8605   10.1782 C.ar    1  UNL1        0.0095
     31 C          63.2935   84.3803   14.5738 C.3     1  UNL1        0.0252
     32 C          61.9707   83.7535   14.9016 C.3     1  UNL1        0.0217
     33 C          61.7539   82.2893   14.6589 C.3     1  UNL1        0.0724
     34 N          62.8598   81.4518   14.0883 N.3     1  UNL1       -0.2726
     35 C          64.1825   82.0786   13.7604 C.3     1  UNL1        0.0724
     36 C          64.3994   83.5429   14.0032 C.3     1  UNL1        0.0217
     37 C          62.6431   79.9876   13.8456 C.3     1  UNL1        0.0750
     38 C          62.4533   79.4792   12.4471 C.3     1  UNL1        0.0554
     39 C          62.8924   80.3127   11.2799 C.3     1  UNL1        0.1947
     40 F          62.8453   79.7444    9.8925 F       1  UNL1       -0.2343
@<TRIPOS>BOND
     1     1     2    1
     2     2     3    2
     3     3     4    1
     4     4    31    1
     5    31    32    1
     6    32    33    1
     7    33    34    1
     8    34    37    1
     9    37    38    1
    10    38    39    1
    11    39    40    1
    12    34    35    1
    13    35    36    1
    14     4     5    2
    15     5     6    1
    16     6     7    2
    17     7     8    1
    18     8    11    1
    19    11    12    1
    20    12    18    1
    21    18    20    1
    22    20    21    1
    23    21    22    1
    24    21    24    1
    25    24    25   ar
    26    25    26   ar
    27    26    27   ar
    28    27    28   ar
    29    28    29    1
    30    28    30   ar
    31    12    13    2
    32    13    14    1
    33    14    15    2
    34    15    16    1
    35    16    17    2
    36     8     9    2
    37     9    10    1
    38    10     2    1
    39    36    31    1
    40    10     6    1
    41    16    11    1
    42    30    24   ar
    43    18    19    1
    44    22    23    1
@<TRIPOS>MOLECULE
*****
 40 44 0 0 0
SMALL
GASTEIGER

@<TRIPOS>ATOM
      1 C          62.9137   88.2057   17.5195 C.3     1  UNL1        0.0312
      2 C          63.4837   88.3848   16.1436 C.2     1  UNL1        0.0121
      3 C          63.9762   89.7321   15.7053 C.2     1  UNL1       -0.0081
      4 C          64.5461   89.9112   14.3295 C.2     1  UNL1       -0.0194
      5 C          64.6236   88.7429   13.3918 C.2     1  UNL1        0.0425
      6 C          64.1311   87.3956   13.8301 C.2     1  UNL1        0.2231
      7 N          64.0794   86.0696   13.1307 N.2     1  UNL1       -0.0378
      8 C          63.4774   85.0710   14.0744 C.2     1  UNL1        0.3605
      9 N          63.1571   85.7798   15.3570 N.2     1  UNL1       -0.0547
     10 C          63.5611   87.2165   15.2060 C.3     1  UNL1        0.2975
     11 C          63.2378   83.6186   13.7861 C.3     1  UNL1        0.2246
     12 C          62.7266   83.1954   12.4409 C.2     1  UNL1        0.0436
     13 C          62.4870   81.7429   12.1527 C.2     1  UNL1        0.0288
     14 C          62.7585   80.7138   13.2096 C.2     1  UNL1        0.0896
     15 N          63.2697   81.1370   14.5548 N.am    1  UNL1       -0.1770
     16 C          63.5093   82.5895   14.8430 C.2     1  UNL1        0.2627
     17 O          64.0205   83.0127   16.1882 O.2     1  UNL1       -0.2719
     18 N          62.4550   84.2245   11.3840 N.pl3   1  UNL1       -0.3329
     19 H          62.7901   84.0897   10.4681 H       1  UNL1        0.1466
     20 C          61.6730   85.4589   11.7224 C.3     1  UNL1        0.1211
     21 C          61.6473   86.6157   10.7678 C.3     1  UNL1        0.1522
     22 O          62.2575   87.9278   11.1628 O.3     1  UNL1       -0.3783
     23 H          62.6219   87.8581   12.0591 H       1  UNL1        0.2109
     24 C          61.0115   86.4603    9.4181 C.ar    1  UNL1        0.0067
     25 C          59.7280   87.1716    9.1073 C.ar    1  UNL1       -0.0018
     26 C          59.0921   87.0162    7.7577 C.ar    1  UNL1        0.0006
     27 C          59.7398   86.1495    6.7188 C.ar    1  UNL1        0.0114
     28 C          61.0233   85.4382    7.0296 C.ar    1  UNL1        0.0574
     29 CL         61.6709   84.5715    5.9906 Cl      1  UNL1       -0.0823
     30 C          61.6591   85.5936    8.3792 C.ar    1  UNL1        0.0095
     31 C          65.0387   91.2586   13.8912 C.3     1  UNL1        0.0252
     32 C          65.8082   92.1227   14.8457 C.3     1  UNL1        0.0217
     33 C          66.3008   93.4701   14.4075 C.3     1  UNL1        0.0724
     34 N          66.0237   93.9533   13.0147 N.3     1  UNL1       -0.2726
     35 C          65.2542   93.0891   12.0602 C.3     1  UNL1        0.0724
     36 C          64.7617   91.7418   12.4985 C.3     1  UNL1        0.0217
     37 C          66.5162   95.3006   12.5764 C.3     1  UNL1        0.0750
     38 C          66.0840   95.8636   11.2549 C.3     1  UNL1        0.0554
     39 C          67.0729   95.9906   10.1342 C.3     1  UNL1        0.1947
     40 F          66.7455   96.8327    8.9369 F       1  UNL1       -0.2343
@<TRIPOS>BOND
     1     1     2    1
     2     2     3    2
     3     3     4    1
     4     4    31    1
     5    31    32    1
     6    32    33    1
     7    33    34    1
     8    34    37    1
     9    37    38    1
    10    38    39    1
    11    39    40    1
    12    34    35    1
    13    35    36    1
    14     4     5    2
    15     5     6    1
    16     6     7    2
    17     7     8    1
    18     8    11    1
    19    11    12    1
    20    12    18    1
    21    18    20    1
    22    20    21    1
    23    21    22    1
    24    21    24    1
    25    24    25   ar
    26    25    26   ar
    27    26    27   ar
    28    27    28   ar
    29    28    29    1
    30    28    30   ar
    31    12    13    2
    32    13    14    1
    33    14    15    2
    34    15    16    1
    35    16    17    2
    36     8     9    2
    37     9    10    1
    38    10     2    1
    39    36    31    1
    40    10     6    1
    41    16    11    1
    42    30    24   ar
    43    18    19    1
    44    22    23    1
@<TRIPOS>MOLECULE
*****
 40 44 0 0 0
SMALL
GASTEIGER

@<TRIPOS>ATOM
      1 C          63.9303   86.9204   14.7813 C.3     1  UNL1        0.0312
      2 C          64.1202   88.2026   14.0265 C.2     1  UNL1        0.0121
      3 C          65.0080   89.2761   14.5829 C.2     1  UNL1       -0.0081
      4 C          65.1979   90.5583   13.8281 C.2     1  UNL1       -0.0194
      5 C          64.5000   90.7672   12.5168 C.2     1  UNL1        0.0425
      6 C          63.6123   89.6937   11.9604 C.2     1  UNL1        0.2231
      7 N          62.8004   89.6152   10.7016 N.2     1  UNL1       -0.0378
      8 C          62.1086   88.2845   10.6784 C.2     1  UNL1        0.3605
      9 N          62.4931   87.5405   11.9229 N.2     1  UNL1       -0.0547
     10 C          63.4224   88.4115   12.7152 C.3     1  UNL1        0.2975
     11 C          61.1932   87.7853    9.6001 C.3     1  UNL1        0.2246
     12 C          61.4547   86.4598    8.9485 C.2     1  UNL1        0.0436
     13 C          60.5391   85.9607    7.8701 C.2     1  UNL1        0.0288
     14 C          59.3622   86.7869    7.4435 C.2     1  UNL1        0.0896
     15 N          59.1007   88.1124    8.0951 N.am    1  UNL1       -0.1770
     16 C          60.0163   88.6116    9.1735 C.2     1  UNL1        0.2627
     17 O          59.7548   89.9371    9.8251 O.2     1  UNL1       -0.2719
     18 N          62.6316   85.6334    9.3750 N.pl3   1  UNL1       -0.3329
     19 H          63.5267   86.0402    9.4242 H       1  UNL1        0.1466
     20 C          62.4446   84.1873    9.7267 C.3     1  UNL1        0.1211
     21 C          63.4295   83.5008   10.6261 C.3     1  UNL1        0.1522
     22 O          64.8765   83.4291   10.2376 O.3     1  UNL1       -0.3783
     23 H          65.0045   83.8717    9.3840 H       1  UNL1        0.2109
     24 C          62.9672   82.8860   11.9138 C.ar    1  UNL1        0.0067
     25 C          62.5918   81.4345   11.9598 C.ar    1  UNL1       -0.0018
     26 C          62.1296   80.8197   13.2475 C.ar    1  UNL1        0.0006
     27 C          62.0427   81.6565   14.4894 C.ar    1  UNL1        0.0114
     28 C          62.4181   83.1080   14.4435 C.ar    1  UNL1        0.0574
     29 CL         62.3312   83.9447   15.6854 Cl      1  UNL1       -0.0823
     30 C          62.8803   83.7228   13.1557 C.ar    1  UNL1        0.0095
     31 C          66.0857   91.6318   14.3846 C.3     1  UNL1        0.0252
     32 C          66.0205   93.0228   13.8270 C.3     1  UNL1        0.0217
     33 C          66.9082   94.0962   14.3835 C.3     1  UNL1        0.0724
     34 N          67.8612   93.7786   15.4974 N.3     1  UNL1       -0.2726
     35 C          67.9264   92.3876   16.0550 C.3     1  UNL1        0.0724
     36 C          67.0387   91.3142   15.4986 C.3     1  UNL1        0.0217
     37 C          68.7489   94.8520   16.0539 C.3     1  UNL1        0.0750
     38 C          70.2035   94.5735   16.2923 C.3     1  UNL1        0.0554
     39 C          71.1714   94.6082   15.1470 C.3     1  UNL1        0.1947
     40 F          72.1552   95.7344   15.0303 F       1  UNL1       -0.2343
@<TRIPOS>BOND
     1     1     2    1
     2     2     3    2
     3     3     4    1
     4     4    31    1
     5    31    32    1
     6    32    33    1
     7    33    34    1
     8    34    37    1
     9    37    38    1
    10    38    39    1
    11    39    40    1
    12    34    35    1
    13    35    36    1
    14     4     5    2
    15     5     6    1
    16     6     7    2
    17     7     8    1
    18     8    11    1
    19    11    12    1
    20    12    18    1
    21    18    20    1
    22    20    21    1
    23    21    22    1
    24    21    24    1
    25    24    25   ar
    26    25    26   ar
    27    26    27   ar
    28    27    28   ar
    29    28    29    1
    30    28    30   ar
    31    12    13    2
    32    13    14    1
    33    14    15    2
    34    15    16    1
    35    16    17    2
    36     8     9    2
    37     9    10    1
    38    10     2    1
    39    36    31    1
    40    10     6    1
    41    16    11    1
    42    30    24   ar
    43    18    19    1
    44    22    23    1
@<TRIPOS>MOLECULE
*****
 40 44 0 0 0
SMALL
GASTEIGER

@<TRIPOS>ATOM
      1 C          63.6331   84.5472   13.8684 C.3     1  UNL1        0.0312
      2 C          63.3069   85.5626   12.8135 C.2     1  UNL1        0.0121
      3 C          62.8541   85.1143   11.4556 C.2     1  UNL1       -0.0081
      4 C          62.5279   86.1296   10.4008 C.2     1  UNL1       -0.0194
      5 C          62.6545   87.5932   10.7038 C.2     1  UNL1        0.0425
      6 C          63.1074   88.0415   12.0618 C.2     1  UNL1        0.2231
      7 N          63.3248   89.4050   12.6478 N.2     1  UNL1       -0.0378
      8 C          63.7853   89.2324   14.0649 C.2     1  UNL1        0.3605
      9 N          63.8526   87.7622   14.3546 N.2     1  UNL1       -0.0547
     10 C          63.4336   87.0261   13.1166 C.3     1  UNL1        0.2975
     11 C          64.1199   90.3362   15.0239 C.3     1  UNL1        0.2246
     12 C          65.1512   91.3617   14.6568 C.2     1  UNL1        0.0436
     13 C          65.4857   92.4655   15.6159 C.2     1  UNL1        0.0288
     14 C          64.7890   92.5438   16.9420 C.2     1  UNL1        0.0896
     15 N          63.7577   91.5183   17.3090 N.am    1  UNL1       -0.1770
     16 C          63.4232   90.4145   16.3499 C.2     1  UNL1        0.2627
     17 O          62.3919   89.3890   16.7170 O.2     1  UNL1       -0.2719
     18 N          65.8479   91.2835   13.3308 N.pl3   1  UNL1       -0.3329
     19 H          66.6116   90.6738   13.2113 H       1  UNL1        0.1466
     20 C          65.3813   92.1343   12.1870 C.3     1  UNL1        0.1211
     21 C          66.0188   93.4686   11.9359 C.3     1  UNL1        0.1522
     22 O          65.9044   94.5590   12.9596 O.3     1  UNL1       -0.3783
     23 H          65.3907   94.2385   13.7174 H       1  UNL1        0.2109
     24 C          66.7707   93.7126   10.6611 C.ar    1  UNL1        0.0067
     25 C          67.5804   92.6104   10.0452 C.ar    1  UNL1       -0.0018
     26 C          68.3323   92.8543    8.7704 C.ar    1  UNL1        0.0006
     27 C          68.2744   94.2005    8.1114 C.ar    1  UNL1        0.0114
     28 C          67.4647   95.3028    8.7273 C.ar    1  UNL1        0.0574
     29 CL         67.4068   96.6490    8.0682 Cl      1  UNL1       -0.0823
     30 C          66.7128   95.0588   10.0021 C.ar    1  UNL1        0.0095
     31 C          62.0750   85.6813    9.0428 C.3     1  UNL1        0.0252
     32 C          60.6671   85.9440    8.5971 C.3     1  UNL1        0.0217
     33 C          60.2142   85.4958    7.2392 C.3     1  UNL1        0.0724
     34 N          61.1693   84.7848    6.3269 N.3     1  UNL1       -0.2726
     35 C          62.5773   84.5221    6.7726 C.3     1  UNL1        0.0724
     36 C          63.0302   84.9703    8.1305 C.3     1  UNL1        0.0217
     37 C          60.7166   84.3365    4.9690 C.3     1  UNL1        0.0750
     38 C          61.7174   84.1565    3.8663 C.3     1  UNL1        0.0554
     39 C          61.2646   84.1490    2.4363 C.3     1  UNL1        0.1947
     40 F          61.9591   85.0124    1.4252 F       1  UNL1       -0.2343
@<TRIPOS>BOND
     1     1     2    1
     2     2     3    2
     3     3     4    1
     4     4    31    1
     5    31    32    1
     6    32    33    1
     7    33    34    1
     8    34    37    1
     9    37    38    1
    10    38    39    1
    11    39    40    1
    12    34    35    1
    13    35    36    1
    14     4     5    2
    15     5     6    1
    16     6     7    2
    17     7     8    1
    18     8    11    1
    19    11    12    1
    20    12    18    1
    21    18    20    1
    22    20    21    1
    23    21    22    1
    24    21    24    1
    25    24    25   ar
    26    25    26   ar
    27    26    27   ar
    28    27    28   ar
    29    28    29    1
    30    28    30   ar
    31    12    13    2
    32    13    14    1
    33    14    15    2
    34    15    16    1
    35    16    17    2
    36     8     9    2
    37     9    10    1
    38    10     2    1
    39    36    31    1
    40    10     6    1
    41    16    11    1
    42    30    24   ar
    43    18    19    1
    44    22    23    1
@<TRIPOS>MOLECULE
*****
 40 44 0 0 0
SMALL
GASTEIGER

@<TRIPOS>ATOM
      1 C          58.7878   89.1201   12.4069 C.3     1  UNL1        0.0312
      2 C          60.0693   88.6842   11.7605 C.2     1  UNL1        0.0121
      3 C          60.0366   87.7686   10.5728 C.2     1  UNL1       -0.0081
      4 C          61.3179   87.3326    9.9264 C.2     1  UNL1       -0.0194
      5 C          62.6321   87.8123   10.4676 C.2     1  UNL1        0.0425
      6 C          62.6648   88.7279   11.6553 C.2     1  UNL1        0.2231
      7 N          63.8004   89.3593   12.4048 N.2     1  UNL1       -0.0378
      8 C          63.2208   90.1855   13.5145 C.2     1  UNL1        0.3605
      9 N          61.7270   90.0647   13.4508 N.2     1  UNL1       -0.0547
     10 C          61.3834   89.1638   12.3017 C.3     1  UNL1        0.2975
     11 C          63.9984   90.9910   14.5127 C.3     1  UNL1        0.2246
     12 C          63.8088   90.7510   15.9812 C.2     1  UNL1        0.0436
     13 C          64.5864   91.5566   16.9793 C.2     1  UNL1        0.0288
     14 C          65.5536   92.6022   16.5091 C.2     1  UNL1        0.0896
     15 N          65.7432   92.8423   15.0406 N.am    1  UNL1       -0.1770
     16 C          64.9656   92.0367   14.0425 C.2     1  UNL1        0.2627
     17 O          65.1552   92.2767   12.5740 O.2     1  UNL1       -0.2719
     18 N          62.8416   89.7054   16.4515 N.pl3   1  UNL1       -0.3329
     19 H          61.8727   89.8709   16.3968 H       1  UNL1        0.1466
     20 C          63.3506   88.4076   17.0053 C.3     1  UNL1        0.1211
     21 C          62.6209   87.1300   16.7135 C.3     1  UNL1        0.1522
     22 O          61.2314   86.9230   17.2393 O.3     1  UNL1       -0.3783
     23 H          60.9566   87.7049   17.7432 H       1  UNL1        0.2109
     24 C          63.2806   86.0595   15.8958 C.ar    1  UNL1        0.0067
     25 C          64.6305   86.3038   15.2890 C.ar    1  UNL1       -0.0018
     26 C          65.2902   85.2333   14.4713 C.ar    1  UNL1        0.0006
     27 C          64.6001   83.9182   14.2604 C.ar    1  UNL1        0.0114
     28 C          63.2503   83.6739   14.8672 C.ar    1  UNL1        0.0574
     29 CL         62.5602   82.3588   14.6562 Cl      1  UNL1       -0.0823
     30 C          62.5905   84.7444   15.6848 C.ar    1  UNL1        0.0095
     31 C          61.2852   86.4170    8.7387 C.3     1  UNL1        0.0252
     32 C          60.0242   86.2697    7.9397 C.3     1  UNL1        0.0217
     33 C          59.9915   85.3541    6.7520 C.3     1  UNL1        0.0724
     34 N          61.2197   84.5857    6.3633 N.3     1  UNL1       -0.2726
     35 C          62.4806   84.7330    7.1623 C.3     1  UNL1        0.0724
     36 C          62.5134   85.6486    8.3500 C.3     1  UNL1        0.0217
     37 C          61.1871   83.6701    5.1757 C.3     1  UNL1        0.0750
     38 C          61.9322   84.0356    3.9262 C.3     1  UNL1        0.0554
     39 C          61.2162   84.0690    2.6085 C.3     1  UNL1        0.1947
     40 F          61.7629   84.8899    1.4784 F       1  UNL1       -0.2343
@<TRIPOS>BOND
     1     1     2    1
     2     2     3    2
     3     3     4    1
     4     4    31    1
     5    31    32    1
     6    32    33    1
     7    33    34    1
     8    34    37    1
     9    37    38    1
    10    38    39    1
    11    39    40    1
    12    34    35    1
    13    35    36    1
    14     4     5    2
    15     5     6    1
    16     6     7    2
    17     7     8    1
    18     8    11    1
    19    11    12    1
    20    12    18    1
    21    18    20    1
    22    20    21    1
    23    21    22    1
    24    21    24    1
    25    24    25   ar
    26    25    26   ar
    27    26    27   ar
    28    27    28   ar
    29    28    29    1
    30    28    30   ar
    31    12    13    2
    32    13    14    1
    33    14    15    2
    34    15    16    1
    35    16    17    2
    36     8     9    2
    37     9    10    1
    38    10     2    1
    39    36    31    1
    40    10     6    1
    41    16    11    1
    42    30    24   ar
    43    18    19    1
    44    22    23    1
@<TRIPOS>MOLECULE
*****
 40 44 0 0 0
SMALL
GASTEIGER

@<TRIPOS>ATOM
      1 C          59.0198   89.7180   12.3235 C.3     1  UNL1        0.0312
      2 C          60.4985   89.5269   12.1597 C.2     1  UNL1        0.0121
      3 C          61.4533   90.2642   13.0512 C.2     1  UNL1       -0.0081
      4 C          62.9320   90.0732   12.8874 C.2     1  UNL1       -0.0194
      5 C          63.4560   89.1448   11.8321 C.2     1  UNL1        0.0425
      6 C          62.5012   88.4075   10.9407 C.2     1  UNL1        0.2231
      7 N          62.7216   87.4338    9.8211 N.2     1  UNL1       -0.0378
      8 C          61.3790   87.0231    9.2930 C.2     1  UNL1        0.3605
      9 N          60.3289   87.7430   10.0861 N.2     1  UNL1       -0.0547
     10 C          61.0224   88.5985   11.1045 C.3     1  UNL1        0.2975
     11 C          61.1303   86.0614    8.1690 C.3     1  UNL1        0.2246
     12 C          62.1929   85.0797    7.7729 C.2     1  UNL1        0.0436
     13 C          61.9441   84.1180    6.6489 C.2     1  UNL1        0.0288
     14 C          60.6326   84.1381    5.9211 C.2     1  UNL1        0.0896
     15 N          59.5700   85.1198    6.3172 N.am    1  UNL1       -0.1770
     16 C          59.8188   86.0815    7.4412 C.2     1  UNL1        0.2627
     17 O          58.7562   87.0632    7.8374 O.2     1  UNL1       -0.2719
     18 N          63.5044   85.0596    8.5006 N.pl3   1  UNL1       -0.3329
     19 H          64.1394   85.8040    8.3914 H       1  UNL1        0.1466
     20 C          63.8484   83.9054    9.3947 C.3     1  UNL1        0.1211
     21 C          63.2984   83.8469   10.7890 C.3     1  UNL1        0.1522
     22 O          63.0065   85.1157   11.5339 O.3     1  UNL1       -0.3783
     23 H          63.2279   85.8770   10.9751 H       1  UNL1        0.2109
     24 C          63.0405   82.5196   11.4384 C.ar    1  UNL1        0.0067
     25 C          62.7549   82.4471   12.9092 C.ar    1  UNL1       -0.0018
     26 C          62.4969   81.1198   13.5586 C.ar    1  UNL1        0.0006
     27 C          62.5245   79.8649   12.7372 C.ar    1  UNL1        0.0114
     28 C          62.8101   79.9375   11.2665 C.ar    1  UNL1        0.0574
     29 CL         62.8377   78.6827   10.4451 Cl      1  UNL1       -0.0823
     30 C          63.0681   81.2648   10.6171 C.ar    1  UNL1        0.0095
     31 C          63.8868   90.8105   13.7789 C.3     1  UNL1        0.0252
     32 C          65.0971   91.4762   13.1941 C.3     1  UNL1        0.0217
     33 C          66.0519   92.2135   14.0855 C.3     1  UNL1        0.0724
     34 N          65.7964   92.2851   15.5618 N.3     1  UNL1       -0.2726
     35 C          64.5861   91.6195   16.1467 C.3     1  UNL1        0.0724
     36 C          63.6313   90.8822   15.2553 C.3     1  UNL1        0.0217
     37 C          66.7511   93.0224   16.4534 C.3     1  UNL1        0.0750
     38 C          68.2286   92.8033   16.3143 C.3     1  UNL1        0.0554
     39 C          69.1004   93.8943   15.7668 C.3     1  UNL1        0.1947
     40 F          69.0440   95.2696   16.3628 F       1  UNL1       -0.2343
@<TRIPOS>BOND
     1     1     2    1
     2     2     3    2
     3     3     4    1
     4     4    31    1
     5    31    32    1
     6    32    33    1
     7    33    34    1
     8    34    37    1
     9    37    38    1
    10    38    39    1
    11    39    40    1
    12    34    35    1
    13    35    36    1
    14     4     5    2
    15     5     6    1
    16     6     7    2
    17     7     8    1
    18     8    11    1
    19    11    12    1
    20    12    18    1
    21    18    20    1
    22    20    21    1
    23    21    22    1
    24    21    24    1
    25    24    25   ar
    26    25    26   ar
    27    26    27   ar
    28    27    28   ar
    29    28    29    1
    30    28    30   ar
    31    12    13    2
    32    13    14    1
    33    14    15    2
    34    15    16    1
    35    16    17    2
    36     8     9    2
    37     9    10    1
    38    10     2    1
    39    36    31    1
    40    10     6    1
    41    16    11    1
    42    30    24   ar
    43    18    19    1
    44    22    23    1
@<TRIPOS>MOLECULE
*****
 40 44 0 0 0
SMALL
GASTEIGER

@<TRIPOS>ATOM
      1 C          59.2456   90.4666   11.8032 C.3     1  UNL1        0.0312
      2 C          60.4501   89.6360   11.4724 C.2     1  UNL1        0.0121
      3 C          60.3866   88.6329   10.3590 C.2     1  UNL1       -0.0081
      4 C          61.5909   87.8024   10.0282 C.2     1  UNL1       -0.0194
      5 C          62.8590   87.9749   10.8108 C.2     1  UNL1        0.0425
      6 C          62.9225   88.9780   11.9242 C.2     1  UNL1        0.2231
      7 N          64.0258   89.3669   12.8630 N.2     1  UNL1       -0.0378
      8 C          63.5032   90.4378   13.7741 C.2     1  UNL1        0.3605
      9 N          62.0770   90.7108   13.3983 N.2     1  UNL1       -0.0547
     10 C          61.7180   89.8086   12.2550 C.3     1  UNL1        0.2975
     11 C          64.2720   91.1166   14.8687 C.3     1  UNL1        0.2246
     12 C          65.5095   91.8988   14.5423 C.2     1  UNL1        0.0436
     13 C          66.2782   92.5776   15.6371 C.2     1  UNL1        0.0288
     14 C          65.8094   92.4742   17.0581 C.2     1  UNL1        0.0896
     15 N          64.5718   91.6920   17.3846 N.am    1  UNL1       -0.1770
     16 C          63.8031   91.0132   16.2898 C.2     1  UNL1        0.2627
     17 O          62.5656   90.2310   16.6162 O.2     1  UNL1       -0.2719
     18 N          65.9785   92.0023   13.1213 N.pl3   1  UNL1       -0.3329
     19 H          66.7264   91.4441   12.8079 H       1  UNL1        0.1466
     20 C          65.3078   92.9561   12.1777 C.3     1  UNL1        0.1211
     21 C          66.0134   94.2089   11.7504 C.3     1  UNL1        0.1522
     22 O          65.9808   95.4247   12.6285 O.3     1  UNL1       -0.3783
     23 H          65.4656   95.2327   13.4276 H       1  UNL1        0.2109
     24 C          66.7515   94.2460   10.4451 C.ar    1  UNL1        0.0067
     25 C          66.6940   95.4739    9.5856 C.ar    1  UNL1       -0.0018
     26 C          67.4321   95.5110    8.2803 C.ar    1  UNL1        0.0006
     27 C          68.2278   94.3201    7.8345 C.ar    1  UNL1        0.0114
     28 C          68.2852   93.0922    8.6940 C.ar    1  UNL1        0.0574
     29 CL         69.0808   91.9013    8.2482 Cl      1  UNL1       -0.0823
     30 C          67.5471   93.0551    9.9993 C.ar    1  UNL1        0.0095
     31 C          61.5274   86.7992    8.9147 C.3     1  UNL1        0.0252
     32 C          60.2804   86.6709    8.0910 C.3     1  UNL1        0.0217
     33 C          60.2168   85.6678    6.9776 C.3     1  UNL1        0.0724
     34 N          61.4003   84.7929    6.6879 N.3     1  UNL1       -0.2726
     35 C          62.6474   84.9212    7.5116 C.3     1  UNL1        0.0724
     36 C          62.7109   85.9244    8.6250 C.3     1  UNL1        0.0217
     37 C          61.3369   83.7898    5.5745 C.3     1  UNL1        0.0750
     38 C          61.9604   84.1027    4.2466 C.3     1  UNL1        0.0554
     39 C          61.1330   84.0440    2.9969 C.3     1  UNL1        0.1947
     40 F          61.6817   84.5806    1.7081 F       1  UNL1       -0.2343
@<TRIPOS>BOND
     1     1     2    1
     2     2     3    2
     3     3     4    1
     4     4    31    1
     5    31    32    1
     6    32    33    1
     7    33    34    1
     8    34    37    1
     9    37    38    1
    10    38    39    1
    11    39    40    1
    12    34    35    1
    13    35    36    1
    14     4     5    2
    15     5     6    1
    16     6     7    2
    17     7     8    1
    18     8    11    1
    19    11    12    1
    20    12    18    1
    21    18    20    1
    22    20    21    1
    23    21    22    1
    24    21    24    1
    25    24    25   ar
    26    25    26   ar
    27    26    27   ar
    28    27    28   ar
    29    28    29    1
    30    28    30   ar
    31    12    13    2
    32    13    14    1
    33    14    15    2
    34    15    16    1
    35    16    17    2
    36     8     9    2
    37     9    10    1
    38    10     2    1
    39    36    31    1
    40    10     6    1
    41    16    11    1
    42    30    24   ar
    43    18    19    1
    44    22    23    1
