@<TRIPOS>MOLECULE
*****
 24 26 0 0 0
SMALL
GASTEIGER

@<TRIPOS>ATOM
      1 O          62.6511   81.7406   14.5692 O.2     1  UNL1       -0.2262
      2 C          63.4959   82.9034   14.1402 C.2     1  UNL1        0.4052
      3 N          63.4000   84.2100   14.8707 N.am    1  UNL1       -0.2460
      4 C          64.2449   85.3729   14.4418 C.3     1  UNL1        0.0968
      5 C          64.1490   86.6794   15.1723 C.3     1  UNL1        0.0234
      6 C          63.2083   86.8231   16.3318 C.3     1  UNL1        0.0230
      7 C          62.3635   85.6603   16.7608 C.3     1  UNL1        0.0234
      8 C          62.4594   84.3537   16.0302 C.3     1  UNL1        0.0968
      9 O          64.4366   82.7597   12.9807 O.3     1  UNL1       -0.4295
     10 C          63.8955   82.5538   11.5969 C.3     1  UNL1        0.2367
     11 C          63.3577   83.7193   10.8207 C.ar    1  UNL1        0.0213
     12 C          62.4136   84.6843   11.4745 C.ar    1  UNL1       -0.0007
     13 C          61.8758   85.8497   10.6983 C.ar    1  UNL1       -0.0002
     14 C          62.2822   86.0502    9.2684 C.ar    1  UNL1       -0.0000
     15 C          63.2263   85.0852    8.6146 C.ar    1  UNL1       -0.0002
     16 C          63.7640   83.9198    9.3908 C.ar    1  UNL1       -0.0007
     17 C          63.1124   88.1297   17.0624 C.3     1  UNL1        0.0887
     18 N          62.6322   89.3565   16.3452 N.pl3   1  UNL1       -0.3116
     19 H          61.6696   89.4893   16.1874 H       1  UNL1        0.1487
     20 C          63.6187   90.3809   15.8683 C.ar    1  UNL1        0.1825
     21 N          63.9082   91.6985   16.5242 N.ar    1  UNL1       -0.1256
     22 N          64.9573   92.3995   15.7132 N.ar    1  UNL1       -0.1374
     23 C          65.3164   91.5152   14.5559 C.ar    1  UNL1        0.1604
     24 S          64.4890   90.2676   14.6519 S.2     1  UNL1       -0.0287
@<TRIPOS>BOND
     1     1     2    2
     2     2     9    1
     3     9    10    1
     4    10    11    1
     5    11    12   ar
     6    12    13   ar
     7    13    14   ar
     8    14    15   ar
     9    15    16   ar
    10     2     3   am
    11     3     4    1
    12     4     5    1
    13     5     6    1
    14     6    17    1
    15    17    18    1
    16    18    20    1
    17    20    21   ar
    18    21    22   ar
    19    22    23   ar
    20    23    24   ar
    21     6     7    1
    22     7     8    1
    23    16    11   ar
    24     8     3    1
    25    24    20   ar
    26    18    19    1
@<TRIPOS>MOLECULE
*****
 24 26 0 0 0
SMALL
GASTEIGER

@<TRIPOS>ATOM
      1 O          62.3593   85.9645   18.0191 O.2     1  UNL1       -0.2262
      2 C          63.0857   86.0673   16.7108 C.2     1  UNL1        0.4052
      3 N          63.4196   87.4146   16.1423 N.am    1  UNL1       -0.2460
      4 C          64.1460   87.5175   14.8339 C.3     1  UNL1        0.0968
      5 C          64.4800   88.8648   14.2654 C.3     1  UNL1        0.0234
      6 C          64.0875   90.1093   15.0052 C.3     1  UNL1        0.0230
      7 C          63.3611   90.0064   16.3135 C.3     1  UNL1        0.0234
      8 C          63.0271   88.6590   16.8821 C.3     1  UNL1        0.0968
      9 O          63.4782   84.8228   15.9710 O.3     1  UNL1       -0.4295
     10 C          62.4253   83.8525   15.5240 C.3     1  UNL1        0.2367
     11 C          62.6075   83.0823   14.2497 C.ar    1  UNL1        0.0213
     12 C          62.2054   81.6389   14.1817 C.ar    1  UNL1       -0.0007
     13 C          62.3876   80.8688   12.9075 C.ar    1  UNL1       -0.0002
     14 C          62.9719   81.5422   11.7012 C.ar    1  UNL1       -0.0000
     15 C          63.3741   82.9857   11.7692 C.ar    1  UNL1       -0.0002
     16 C          63.1919   83.7557   13.0435 C.ar    1  UNL1       -0.0007
     17 C          64.4214   91.4566   14.4367 C.3     1  UNL1        0.0887
     18 N          65.6527   91.6326   13.5984 N.pl3   1  UNL1       -0.3116
     19 H          65.6358   91.3957   12.6429 H       1  UNL1        0.1487
     20 C          66.9099   92.1696   14.2157 C.ar    1  UNL1        0.1825
     21 N          68.2805   92.1224   13.6080 N.ar    1  UNL1       -0.1256
     22 N          69.2349   92.7717   14.5658 N.ar    1  UNL1       -0.1374
     23 C          68.4542   93.2203   15.7656 C.ar    1  UNL1        0.1604
     24 S          67.0172   92.8482   15.5491 S.2     1  UNL1       -0.0287
@<TRIPOS>BOND
     1     1     2    2
     2     2     9    1
     3     9    10    1
     4    10    11    1
     5    11    12   ar
     6    12    13   ar
     7    13    14   ar
     8    14    15   ar
     9    15    16   ar
    10     2     3   am
    11     3     4    1
    12     4     5    1
    13     5     6    1
    14     6    17    1
    15    17    18    1
    16    18    20    1
    17    20    21   ar
    18    21    22   ar
    19    22    23   ar
    20    23    24   ar
    21     6     7    1
    22     7     8    1
    23    16    11   ar
    24     8     3    1
    25    24    20   ar
    26    18    19    1
@<TRIPOS>MOLECULE
*****
 24 26 0 0 0
SMALL
GASTEIGER

@<TRIPOS>ATOM
      1 O          61.2263   88.7263    9.3329 O.2     1  UNL1       -0.2262
      2 C          61.8071   88.5613   10.7060 C.2     1  UNL1        0.4052
      3 N          62.7562   89.5889   11.2473 N.am    1  UNL1       -0.2460
      4 C          63.3370   89.4239   12.6204 C.3     1  UNL1        0.0968
      5 C          64.2862   90.4515   13.1617 C.3     1  UNL1        0.0234
      6 C          64.6547   91.6442   12.3298 C.3     1  UNL1        0.0230
      7 C          64.0739   91.8091   10.9567 C.3     1  UNL1        0.0234
      8 C          63.1247   90.7815   10.4154 C.3     1  UNL1        0.0968
      9 O          61.4386   87.3687   11.5379 O.3     1  UNL1       -0.4295
     10 C          61.3699   86.0084   10.9096 C.3     1  UNL1        0.2367
     11 C          62.4414   84.9971   11.1913 C.ar    1  UNL1        0.0213
     12 C          62.8503   84.7120   12.6060 C.ar    1  UNL1       -0.0007
     13 C          63.9217   83.7008   12.8877 C.ar    1  UNL1       -0.0002
     14 C          64.5842   82.9746   11.7547 C.ar    1  UNL1       -0.0000
     15 C          64.1753   83.2597   10.3400 C.ar    1  UNL1       -0.0002
     16 C          63.1039   84.2709   10.0583 C.ar    1  UNL1       -0.0007
     17 C          65.6039   92.6718   12.8711 C.3     1  UNL1        0.0887
     18 N          65.7637   93.9882   12.1700 N.pl3   1  UNL1       -0.3116
     19 H          65.2519   94.7727   12.4731 H       1  UNL1        0.1487
     20 C          66.7034   94.1094   11.0071 C.ar    1  UNL1        0.1825
     21 N          67.7778   93.1306   10.6360 N.ar    1  UNL1       -0.1256
     22 N          68.4721   93.6469    9.4106 N.ar    1  UNL1       -0.1374
     23 C          67.8268   94.9448    9.0244 C.ar    1  UNL1        0.1604
     24 S          66.7336   95.2306   10.0111 S.2     1  UNL1       -0.0287
@<TRIPOS>BOND
     1     1     2    2
     2     2     9    1
     3     9    10    1
     4    10    11    1
     5    11    12   ar
     6    12    13   ar
     7    13    14   ar
     8    14    15   ar
     9    15    16   ar
    10     2     3   am
    11     3     4    1
    12     4     5    1
    13     5     6    1
    14     6    17    1
    15    17    18    1
    16    18    20    1
    17    20    21   ar
    18    21    22   ar
    19    22    23   ar
    20    23    24   ar
    21     6     7    1
    22     7     8    1
    23    16    11   ar
    24     8     3    1
    25    24    20   ar
    26    18    19    1
@<TRIPOS>MOLECULE
*****
 24 26 0 0 0
SMALL
GASTEIGER

@<TRIPOS>ATOM
      1 O          60.2049   88.0425   11.9095 O.2     1  UNL1       -0.2262
      2 C          60.8785   88.9210   10.8973 C.2     1  UNL1        0.4052
      3 N          62.0290   89.7918   11.3073 N.am    1  UNL1       -0.2460
      4 C          62.7026   90.6703   10.2951 C.3     1  UNL1        0.0968
      5 C          63.8531   91.5410   10.7050 C.3     1  UNL1        0.0234
      6 C          64.3301   91.5333   12.1272 C.3     1  UNL1        0.0230
      7 C          63.6565   90.6548   13.1394 C.3     1  UNL1        0.0234
      8 C          62.5059   89.7840   12.7294 C.3     1  UNL1        0.0968
      9 O          60.4016   88.9288    9.4751 O.3     1  UNL1       -0.4295
     10 C          59.8771   87.6686    8.8531 C.3     1  UNL1        0.2367
     11 C          60.8319   86.6375    8.3283 C.ar    1  UNL1        0.0213
     12 C          60.4472   85.7883    7.1532 C.ar    1  UNL1       -0.0007
     13 C          61.4020   84.7573    6.6285 C.ar    1  UNL1       -0.0002
     14 C          62.7414   84.5755    7.2789 C.ar    1  UNL1       -0.0000
     15 C          63.1261   85.4247    8.4539 C.ar    1  UNL1       -0.0002
     16 C          62.1713   86.4557    8.9786 C.ar    1  UNL1       -0.0007
     17 C          65.4806   92.4040   12.5372 C.3     1  UNL1        0.0887
     18 N          65.6130   93.7871   11.9721 N.pl3   1  UNL1       -0.3116
     19 H          65.0560   94.5184   12.3248 H       1  UNL1        0.1487
     20 C          66.5939   94.0562   10.8697 C.ar    1  UNL1        0.1825
     21 N          67.7760   93.2041   10.5139 N.ar    1  UNL1       -0.1256
     22 N          68.4777   93.8459    9.3538 N.ar    1  UNL1       -0.1374
     23 C          67.7292   95.0947    8.9926 C.ar    1  UNL1        0.1604
     24 S          66.5650   95.2247    9.9295 S.2     1  UNL1       -0.0287
@<TRIPOS>BOND
     1     1     2    2
     2     2     9    1
     3     9    10    1
     4    10    11    1
     5    11    12   ar
     6    12    13   ar
     7    13    14   ar
     8    14    15   ar
     9    15    16   ar
    10     2     3   am
    11     3     4    1
    12     4     5    1
    13     5     6    1
    14     6    17    1
    15    17    18    1
    16    18    20    1
    17    20    21   ar
    18    21    22   ar
    19    22    23   ar
    20    23    24   ar
    21     6     7    1
    22     7     8    1
    23    16    11   ar
    24     8     3    1
    25    24    20   ar
    26    18    19    1
@<TRIPOS>MOLECULE
*****
 24 26 0 0 0
SMALL
GASTEIGER

@<TRIPOS>ATOM
      1 O          61.2533   89.6606    9.3158 O.2     1  UNL1       -0.2262
      2 C          61.7836   89.5132   10.7111 C.2     1  UNL1        0.4052
      3 N          62.8817   90.4131   11.1951 N.am    1  UNL1       -0.2460
      4 C          63.4120   90.2657   12.5904 C.3     1  UNL1        0.0968
      5 C          64.5101   91.1657   13.0744 C.3     1  UNL1        0.0234
      6 C          65.0779   92.2131   12.1630 C.3     1  UNL1        0.0230
      7 C          64.5475   92.3605   10.7676 C.3     1  UNL1        0.0234
      8 C          63.4494   91.4605   10.2837 C.3     1  UNL1        0.0968
      9 O          61.2158   88.4657   11.6225 O.3     1  UNL1       -0.4295
     10 C          60.7158   87.1699   11.0562 C.3     1  UNL1        0.2367
     11 C          61.6898   86.1432   10.5590 C.ar    1  UNL1        0.0213
     12 C          62.1582   86.1816    9.1345 C.ar    1  UNL1       -0.0007
     13 C          63.1321   85.1548    8.6374 C.ar    1  UNL1       -0.0002
     14 C          63.6376   84.0897    9.5647 C.ar    1  UNL1       -0.0000
     15 C          63.1692   84.0512   10.9891 C.ar    1  UNL1       -0.0002
     16 C          62.1953   85.0780   11.4863 C.ar    1  UNL1       -0.0007
     17 C          66.1759   93.1131   12.6469 C.3     1  UNL1        0.0887
     18 N          66.1617   94.5707   12.2932 N.pl3   1  UNL1       -0.3116
     19 H          65.8832   95.2370   12.9624 H       1  UNL1        0.1487
     20 C          66.5719   95.0133   10.9200 C.ar    1  UNL1        0.1825
     21 N          67.7015   94.4468   10.1117 N.ar    1  UNL1       -0.1256
     22 N          67.7523   95.1834    8.8061 N.ar    1  UNL1       -0.1374
     23 C          66.6541   96.2052    8.8073 C.ar    1  UNL1        0.1604
     24 S          65.9245   96.1000   10.1138 S.2     1  UNL1       -0.0287
@<TRIPOS>BOND
     1     1     2    2
     2     2     9    1
     3     9    10    1
     4    10    11    1
     5    11    12   ar
     6    12    13   ar
     7    13    14   ar
     8    14    15   ar
     9    15    16   ar
    10     2     3   am
    11     3     4    1
    12     4     5    1
    13     5     6    1
    14     6    17    1
    15    17    18    1
    16    18    20    1
    17    20    21   ar
    18    21    22   ar
    19    22    23   ar
    20    23    24   ar
    21     6     7    1
    22     7     8    1
    23    16    11   ar
    24     8     3    1
    25    24    20   ar
    26    18    19    1
@<TRIPOS>MOLECULE
*****
 24 26 0 0 0
SMALL
GASTEIGER

@<TRIPOS>ATOM
      1 O          62.3844   85.9631   18.0465 O.2     1  UNL1       -0.2262
      2 C          63.1291   86.0213   16.7458 C.2     1  UNL1        0.4052
      3 N          63.4608   87.3483   16.1302 N.am    1  UNL1       -0.2460
      4 C          64.2056   87.4066   14.8294 C.3     1  UNL1        0.0968
      5 C          64.5372   88.7336   14.2138 C.3     1  UNL1        0.0234
      6 C          64.1241   90.0025   14.8990 C.3     1  UNL1        0.0230
      7 C          63.3794   89.9442   16.1997 C.3     1  UNL1        0.0234
      8 C          63.0477   88.6171   16.8153 C.3     1  UNL1        0.0968
      9 O          63.5423   84.7525   16.0606 O.3     1  UNL1       -0.4295
     10 C          62.5933   84.0608   15.1274 C.3     1  UNL1        0.2367
     11 C          62.9797   83.8364   13.6954 C.ar    1  UNL1        0.0213
     12 C          62.5194   84.7929   12.6356 C.ar    1  UNL1       -0.0007
     13 C          62.9058   84.5685   11.2038 C.ar    1  UNL1       -0.0002
     14 C          63.7524   83.3874   10.8317 C.ar    1  UNL1       -0.0000
     15 C          64.2126   82.4309   11.8914 C.ar    1  UNL1       -0.0002
     16 C          63.8262   82.6553   13.3233 C.ar    1  UNL1       -0.0007
     17 C          64.4558   91.3295   14.2834 C.3     1  UNL1        0.0887
     18 N          64.7263   91.4267   12.8112 N.pl3   1  UNL1       -0.3116
     19 H          64.4855   90.6803   12.2161 H       1  UNL1        0.1487
     20 C          65.3639   92.6610   12.2457 C.ar    1  UNL1        0.1825
     21 N          65.9451   93.7950   13.0373 N.ar    1  UNL1       -0.1256
     22 N          66.4725   94.8130   12.0702 N.ar    1  UNL1       -0.1374
     23 C          66.2174   94.3083   10.6808 C.ar    1  UNL1        0.1604
     24 S          65.5322   92.9783   10.7893 S.2     1  UNL1       -0.0287
@<TRIPOS>BOND
     1     1     2    2
     2     2     9    1
     3     9    10    1
     4    10    11    1
     5    11    12   ar
     6    12    13   ar
     7    13    14   ar
     8    14    15   ar
     9    15    16   ar
    10     2     3   am
    11     3     4    1
    12     4     5    1
    13     5     6    1
    14     6    17    1
    15    17    18    1
    16    18    20    1
    17    20    21   ar
    18    21    22   ar
    19    22    23   ar
    20    23    24   ar
    21     6     7    1
    22     7     8    1
    23    16    11   ar
    24     8     3    1
    25    24    20   ar
    26    18    19    1
@<TRIPOS>MOLECULE
*****
 24 26 0 0 0
SMALL
GASTEIGER

@<TRIPOS>ATOM
      1 O          60.7619   86.9606    9.6207 O.2     1  UNL1       -0.2262
      2 C          61.5847   87.1207   10.8646 C.2     1  UNL1        0.4052
      3 N          62.3029   88.4110   11.1279 N.am    1  UNL1       -0.2460
      4 C          63.1257   88.5711   12.3718 C.3     1  UNL1        0.0968
      5 C          63.8439   89.8614   12.6351 C.3     1  UNL1        0.0234
      6 C          63.7393   90.9916   11.6544 C.3     1  UNL1        0.0230
      7 C          62.9165   90.8315   10.4105 C.3     1  UNL1        0.0234
      8 C          62.1983   89.5411   10.1472 C.3     1  UNL1        0.0968
      9 O          61.6893   85.9904   11.8453 O.3     1  UNL1       -0.4295
     10 C          62.7752   84.9664   11.6965 C.3     1  UNL1        0.2367
     11 C          62.6711   83.6531   12.4137 C.ar    1  UNL1        0.0213
     12 C          62.4162   83.6238   13.8916 C.ar    1  UNL1       -0.0007
     13 C          62.3121   82.3105   14.6088 C.ar    1  UNL1       -0.0002
     14 C          62.4628   81.0265   13.8481 C.ar    1  UNL1       -0.0000
     15 C          62.7177   81.0558   12.3702 C.ar    1  UNL1       -0.0002
     16 C          62.8218   82.3691   11.6530 C.ar    1  UNL1       -0.0007
     17 C          64.4575   92.2819   11.9177 C.3     1  UNL1        0.0887
     18 N          65.9420   92.3677   11.7206 N.pl3   1  UNL1       -0.3116
     19 H          66.3242   92.2853   10.8171 H       1  UNL1        0.1487
     20 C          66.8442   92.5791   12.9001 C.ar    1  UNL1        0.1825
     21 N          68.2407   92.0516   13.0478 N.ar    1  UNL1       -0.1256
     22 N          68.7679   92.5016   14.3780 N.ar    1  UNL1       -0.1374
     23 C          67.6973   93.3072   15.0526 C.ar    1  UNL1        0.1604
     24 S          66.5084   93.3550   14.1392 S.2     1  UNL1       -0.0287
@<TRIPOS>BOND
     1     1     2    2
     2     2     9    1
     3     9    10    1
     4    10    11    1
     5    11    12   ar
     6    12    13   ar
     7    13    14   ar
     8    14    15   ar
     9    15    16   ar
    10     2     3   am
    11     3     4    1
    12     4     5    1
    13     5     6    1
    14     6    17    1
    15    17    18    1
    16    18    20    1
    17    20    21   ar
    18    21    22   ar
    19    22    23   ar
    20    23    24   ar
    21     6     7    1
    22     7     8    1
    23    16    11   ar
    24     8     3    1
    25    24    20   ar
    26    18    19    1
@<TRIPOS>MOLECULE
*****
 24 26 0 0 0
SMALL
GASTEIGER

@<TRIPOS>ATOM
      1 O          62.6123   90.7213   11.0183 O.2     1  UNL1       -0.2262
      2 C          63.3358   90.4845   12.3108 C.2     1  UNL1        0.4052
      3 N          63.5179   89.0865   12.8232 N.am    1  UNL1       -0.2460
      4 C          64.2414   88.8497   14.1156 C.3     1  UNL1        0.0968
      5 C          64.4236   87.4518   14.6280 C.3     1  UNL1        0.0234
      6 C          63.8822   86.2906   13.8478 C.3     1  UNL1        0.0230
      7 C          63.1587   86.5274   12.5553 C.3     1  UNL1        0.0234
      8 C          62.9766   87.9254   12.0430 C.3     1  UNL1        0.0968
      9 O          63.8772   91.6457   13.0910 O.3     1  UNL1       -0.4295
     10 C          65.2275   92.2081   12.7589 C.3     1  UNL1        0.2367
     11 C          66.2865   92.2911   13.8180 C.ar    1  UNL1        0.0213
     12 C          67.7226   92.0418   13.4638 C.ar    1  UNL1       -0.0007
     13 C          68.7816   92.1248   14.5228 C.ar    1  UNL1       -0.0002
     14 C          68.4045   92.4569   15.9361 C.ar    1  UNL1       -0.0000
     15 C          66.9684   92.7062   16.2904 C.ar    1  UNL1       -0.0002
     16 C          65.9094   92.6232   15.2313 C.ar    1  UNL1       -0.0007
     17 C          64.0643   84.8926   14.3602 C.3     1  UNL1        0.0887
     18 N          64.9327   83.9262   13.6104 N.pl3   1  UNL1       -0.3116
     19 H          65.8935   83.8658   13.8163 H       1  UNL1        0.1487
     20 C          64.3371   83.0519   12.5471 C.ar    1  UNL1        0.1825
     21 N          64.6926   83.0694   11.0898 N.ar    1  UNL1       -0.1256
     22 N          63.8567   82.0348   10.3964 N.ar    1  UNL1       -0.1374
     23 C          62.9846   81.3778   11.4249 C.ar    1  UNL1        0.1604
     24 S          63.2815   82.0065   12.7542 S.2     1  UNL1       -0.0287
@<TRIPOS>BOND
     1     1     2    2
     2     2     9    1
     3     9    10    1
     4    10    11    1
     5    11    12   ar
     6    12    13   ar
     7    13    14   ar
     8    14    15   ar
     9    15    16   ar
    10     2     3   am
    11     3     4    1
    12     4     5    1
    13     5     6    1
    14     6    17    1
    15    17    18    1
    16    18    20    1
    17    20    21   ar
    18    21    22   ar
    19    22    23   ar
    20    23    24   ar
    21     6     7    1
    22     7     8    1
    23    16    11   ar
    24     8     3    1
    25    24    20   ar
    26    18    19    1
@<TRIPOS>MOLECULE
*****
 24 26 0 0 0
SMALL
GASTEIGER

@<TRIPOS>ATOM
      1 O          60.9778   87.1874    9.7230 O.2     1  UNL1       -0.2262
      2 C          61.7509   87.3089   11.0027 C.2     1  UNL1        0.4052
      3 N          62.5107   88.5668   11.3033 N.am    1  UNL1       -0.2460
      4 C          63.2838   88.6883   12.5830 C.3     1  UNL1        0.0968
      5 C          64.0436   89.9462   12.8836 C.3     1  UNL1        0.0234
      6 C          64.0304   91.0826   11.9045 C.3     1  UNL1        0.0230
      7 C          63.2573   90.9610   10.6248 C.3     1  UNL1        0.0234
      8 C          62.4975   89.7031   10.3243 C.3     1  UNL1        0.0968
      9 O          61.7641   86.1725   11.9818 O.3     1  UNL1       -0.4295
     10 C          62.9300   85.2297   12.0208 C.3     1  UNL1        0.2367
     11 C          62.7426   83.8250   12.5126 C.ar    1  UNL1        0.0213
     12 C          63.0000   82.6679   11.5935 C.ar    1  UNL1       -0.0007
     13 C          62.8126   81.2634   12.0854 C.ar    1  UNL1       -0.0002
     14 C          62.3677   81.0159   13.4964 C.ar    1  UNL1       -0.0000
     15 C          62.1102   82.1730   14.4155 C.ar    1  UNL1       -0.0002
     16 C          62.2977   83.5776   13.9236 C.ar    1  UNL1       -0.0007
     17 C          64.7903   92.3404   12.2051 C.3     1  UNL1        0.0887
     18 N          65.0219   93.3534   11.1234 N.pl3   1  UNL1       -0.3116
     19 H          64.3349   94.0312   10.9284 H       1  UNL1        0.1487
     20 C          66.3000   93.3338   10.3387 C.ar    1  UNL1        0.1825
     21 N          66.6982   94.3162    9.2773 N.ar    1  UNL1       -0.1256
     22 N          68.0488   93.9180    8.7601 N.ar    1  UNL1       -0.1374
     23 C          68.4854   92.6895    9.5019 C.ar    1  UNL1        0.1604
     24 S          67.4046   92.3284   10.4775 S.2     1  UNL1       -0.0287
@<TRIPOS>BOND
     1     1     2    2
     2     2     9    1
     3     9    10    1
     4    10    11    1
     5    11    12   ar
     6    12    13   ar
     7    13    14   ar
     8    14    15   ar
     9    15    16   ar
    10     2     3   am
    11     3     4    1
    12     4     5    1
    13     5     6    1
    14     6    17    1
    15    17    18    1
    16    18    20    1
    17    20    21   ar
    18    21    22   ar
    19    22    23   ar
    20    23    24   ar
    21     6     7    1
    22     7     8    1
    23    16    11   ar
    24     8     3    1
    25    24    20   ar
    26    18    19    1
