@<TRIPOS>MOLECULE
*****
 32 35 0 0 0
SMALL
GASTEIGER

@<TRIPOS>ATOM
      1 N          62.9601   90.6681   11.7151 N.am    1  UNL1       -0.2438
      2 C          63.5341   91.2480   10.4565 C.3     1  UNL1        0.1009
      3 C          64.6910   92.2000   10.5290 C.3     1  UNL1        0.0661
      4 C          65.2738   92.5721   11.8601 C.3     1  UNL1        0.1578
      5 O          64.6998   91.9922   13.1188 O.3     1  UNL1       -0.4375
      6 C          63.5429   91.0401   13.0463 C.2     1  UNL1        0.4051
      7 O          62.9688   90.4602   14.3048 O.2     1  UNL1       -0.2262
      8 C          66.1568   93.3786   10.9546 C.ar    1  UNL1        0.0137
      9 C          65.9658   94.8625   10.8476 C.ar    1  UNL1       -0.0010
     10 C          66.8488   95.6690    9.9420 C.ar    1  UNL1       -0.0002
     11 C          67.9228   94.9914    9.1436 C.ar    1  UNL1       -0.0000
     12 C          68.1138   93.5075    9.2506 C.ar    1  UNL1       -0.0002
     13 C          67.2308   92.7010   10.1561 C.ar    1  UNL1       -0.0010
     14 C          60.4010   90.2438   11.5704 C.3     1  UNL1        0.0265
     15 C          61.8032   89.7160   11.6426 C.3     1  UNL1        0.1011
     16 C          62.0486   88.2362   11.6422 C.ar    1  UNL1       -0.0042
     17 C          63.0866   87.6478   12.5512 C.ar    1  UNL1       -0.0026
     18 C          63.3319   86.1681   12.5508 C.ar    1  UNL1        0.0012
     19 C          62.5392   85.2767   11.6414 C.ar    1  UNL1        0.0176
     20 C          61.5012   85.8650   10.7324 C.ar    1  UNL1        0.0012
     21 C          61.2559   87.3448   10.7328 C.ar    1  UNL1       -0.0026
     22 C          62.7846   83.7968   11.6410 C.ar    1  UNL1        0.0813
     23 C          63.4516   83.1475   10.4648 C.ar    1  UNL1        0.0191
     24 C          63.6970   81.6676   10.4645 C.ar    1  UNL1        0.0031
     25 C          63.2753   80.8372   11.6403 C.ar    1  UNL1        0.0207
     26 C          62.6083   81.4866   12.8165 C.ar    1  UNL1        0.0988
     27 N          62.3629   82.9664   12.8168 N.ar    1  UNL1       -0.2438
     28 C          66.1633   93.2243   12.8768 C.3     1  UNL1        0.0471
     29 C          66.6635   92.4365   14.0511 C.3     1  UNL1        0.0357
     30 C          68.1330   92.1825   14.2129 C.3     1  UNL1        0.1373
     31 O          68.9321   91.6444   13.0631 O.3     1  UNL1       -0.3820
     32 H          68.6338   90.7452   12.8549 H       1  UNL1        0.2104
@<TRIPOS>BOND
     1    15    14    1
     2    15    16    1
     3    16    17   ar
     4    17    18   ar
     5    18    19   ar
     6    19    22    1
     7    22    23   ar
     8    23    24   ar
     9    24    25   ar
    10    25    26   ar
    11    26    27   ar
    12    19    20   ar
    13    20    21   ar
    14    15     1    1
    15     1     2    1
    16     2     3    1
    17     3     4    1
    18     4    28    1
    19    28    29    1
    20    29    30    1
    21    30    31    1
    22     4     8    1
    23     8     9   ar
    24     9    10   ar
    25    10    11   ar
    26    11    12   ar
    27    12    13   ar
    28     4     5    1
    29     5     6    1
    30     6     7    2
    31    21    16   ar
    32     6     1   am
    33    27    22   ar
    34    13     8   ar
    35    31    32    1
@<TRIPOS>MOLECULE
*****
 32 35 0 0 0
SMALL
GASTEIGER

@<TRIPOS>ATOM
      1 N          63.3087   90.2815   12.0276 N.am    1  UNL1       -0.2438
      2 C          64.0042   90.1330   13.3483 C.3     1  UNL1        0.1009
      3 C          65.1787   91.0051   13.6796 C.3     1  UNL1        0.0661
      4 C          65.6578   92.0257   12.6903 C.3     1  UNL1        0.1578
      5 O          64.9624   92.1742   11.3696 O.3     1  UNL1       -0.4375
      6 C          63.7878   91.3021   11.0382 C.2     1  UNL1        0.4051
      7 O          63.0923   91.4506    9.7175 O.2     1  UNL1       -0.2262
      8 C          66.6379   92.2599   13.8015 C.ar    1  UNL1        0.0137
      9 C          66.1626   92.7913   15.1212 C.ar    1  UNL1       -0.0010
     10 C          67.1427   93.0255   16.2324 C.ar    1  UNL1       -0.0002
     11 C          68.5980   92.7283   16.0237 C.ar    1  UNL1       -0.0000
     12 C          69.0734   92.1969   14.7040 C.ar    1  UNL1       -0.0002
     13 C          68.0933   91.9627   13.5928 C.ar    1  UNL1       -0.0010
     14 C          60.8137   90.0300   11.3481 C.3     1  UNL1        0.0265
     15 C          62.1341   89.4093   11.6962 C.3     1  UNL1        0.1011
     16 C          62.2800   87.9165   11.7130 C.ar    1  UNL1       -0.0042
     17 C          63.1753   87.2617   12.7227 C.ar    1  UNL1       -0.0026
     18 C          63.3212   85.7690   12.7394 C.ar    1  UNL1        0.0012
     19 C          62.5718   84.9310   11.7464 C.ar    1  UNL1        0.0176
     20 C          61.6765   85.5858   10.7367 C.ar    1  UNL1        0.0012
     21 C          61.5306   87.0785   10.7199 C.ar    1  UNL1       -0.0026
     22 C          62.7177   83.4381   11.7632 C.ar    1  UNL1        0.0813
     23 C          63.2246   82.7204   10.5475 C.ar    1  UNL1        0.0191
     24 C          63.3705   81.2276   10.5642 C.ar    1  UNL1        0.0031
     25 C          63.0095   80.4525   11.7967 C.ar    1  UNL1        0.0207
     26 C          62.5025   81.1703   13.0124 C.ar    1  UNL1        0.0988
     27 N          62.3567   82.6631   12.9956 N.ar    1  UNL1       -0.2438
     28 C          66.4773   93.1277   12.0869 C.3     1  UNL1        0.0471
     29 C          66.7529   93.1363   10.6125 C.3     1  UNL1        0.0357
     30 C          67.9763   92.4554   10.0741 C.3     1  UNL1        0.1373
     31 O          69.2257   93.2466    9.8233 O.3     1  UNL1       -0.3820
     32 H          69.0671   93.8838    9.1094 H       1  UNL1        0.2104
@<TRIPOS>BOND
     1    15    14    1
     2    15    16    1
     3    16    17   ar
     4    17    18   ar
     5    18    19   ar
     6    19    22    1
     7    22    23   ar
     8    23    24   ar
     9    24    25   ar
    10    25    26   ar
    11    26    27   ar
    12    19    20   ar
    13    20    21   ar
    14    15     1    1
    15     1     2    1
    16     2     3    1
    17     3     4    1
    18     4    28    1
    19    28    29    1
    20    29    30    1
    21    30    31    1
    22     4     8    1
    23     8     9   ar
    24     9    10   ar
    25    10    11   ar
    26    11    12   ar
    27    12    13   ar
    28     4     5    1
    29     5     6    1
    30     6     7    2
    31    21    16   ar
    32     6     1   am
    33    27    22   ar
    34    13     8   ar
    35    31    32    1
@<TRIPOS>MOLECULE
*****
 32 35 0 0 0
SMALL
GASTEIGER

@<TRIPOS>ATOM
      1 N          63.3042   90.2824   12.0580 N.am    1  UNL1       -0.2438
      2 C          63.9921   90.1436   13.3836 C.3     1  UNL1        0.1009
      3 C          65.1645   91.0184   13.7155 C.3     1  UNL1        0.0661
      4 C          65.6490   92.0321   12.7217 C.3     1  UNL1        0.1578
      5 O          64.9611   92.1709   11.3959 O.3     1  UNL1       -0.4375
      6 C          63.7887   91.2961   11.0640 C.2     1  UNL1        0.4051
      7 O          63.1008   91.4349    9.7384 O.2     1  UNL1       -0.2262
      8 C          66.6226   92.2745   13.8367 C.ar    1  UNL1        0.0137
      9 C          68.0920   92.0828   13.6043 C.ar    1  UNL1       -0.0010
     10 C          69.0657   92.3252   14.7193 C.ar    1  UNL1       -0.0002
     11 C          68.5698   92.7595   16.0667 C.ar    1  UNL1       -0.0000
     12 C          67.1004   92.9512   16.2992 C.ar    1  UNL1       -0.0002
     13 C          66.1268   92.7088   15.1841 C.ar    1  UNL1       -0.0010
     14 C          60.8047   90.0247   11.3976 C.3     1  UNL1        0.0265
     15 C          62.1318   89.4076   11.7261 C.3     1  UNL1        0.1011
     16 C          62.2865   87.9155   11.7228 C.ar    1  UNL1       -0.0042
     17 C          61.5551   87.0879   10.7078 C.ar    1  UNL1       -0.0026
     18 C          61.7099   85.5960   10.7045 C.ar    1  UNL1        0.0012
     19 C          62.5960   84.9316   11.7161 C.ar    1  UNL1        0.0176
     20 C          63.3274   85.7592   12.7311 C.ar    1  UNL1        0.0012
     21 C          63.1726   87.2511   12.7344 C.ar    1  UNL1       -0.0026
     22 C          62.7507   83.4395   11.7128 C.ar    1  UNL1        0.0813
     23 C          62.3395   82.6402   12.9135 C.ar    1  UNL1        0.0191
     24 C          62.4943   81.1481   12.9102 C.ar    1  UNL1        0.0031
     25 C          63.0602   80.4555   11.7060 C.ar    1  UNL1        0.0207
     26 C          63.4715   81.2550   10.5052 C.ar    1  UNL1        0.0988
     27 N          63.3167   82.7470   10.5086 N.ar    1  UNL1       -0.2438
     28 C          66.4717   93.1300   12.1150 C.3     1  UNL1        0.0471
     29 C          65.8271   94.1375   11.2099 C.3     1  UNL1        0.0357
     30 C          66.3427   95.5455   11.1671 C.3     1  UNL1        0.1373
     31 O          65.7102   96.6021   12.0235 O.3     1  UNL1       -0.3820
     32 H          64.7986   96.7540   11.7290 H       1  UNL1        0.2104
@<TRIPOS>BOND
     1    15    14    1
     2    15    16    1
     3    16    17   ar
     4    17    18   ar
     5    18    19   ar
     6    19    22    1
     7    22    23   ar
     8    23    24   ar
     9    24    25   ar
    10    25    26   ar
    11    26    27   ar
    12    19    20   ar
    13    20    21   ar
    14    15     1    1
    15     1     2    1
    16     2     3    1
    17     3     4    1
    18     4    28    1
    19    28    29    1
    20    29    30    1
    21    30    31    1
    22     4     8    1
    23     8     9   ar
    24     9    10   ar
    25    10    11   ar
    26    11    12   ar
    27    12    13   ar
    28     4     5    1
    29     5     6    1
    30     6     7    2
    31    21    16   ar
    32     6     1   am
    33    27    22   ar
    34    13     8   ar
    35    31    32    1
@<TRIPOS>MOLECULE
*****
 32 35 0 0 0
SMALL
GASTEIGER

@<TRIPOS>ATOM
      1 N          63.2481   88.4109   12.5252 N.am    1  UNL1       -0.2438
      2 C          62.7858   88.6127   11.1126 C.3     1  UNL1        0.1009
      3 C          62.3808   87.4324   10.2801 C.3     1  UNL1        0.0661
      4 C          62.4381   86.0504   10.8602 C.3     1  UNL1        0.1578
      5 O          62.9005   85.8485   12.2729 O.3     1  UNL1       -0.4375
      6 C          63.3054   87.0287   13.1054 C.2     1  UNL1        0.4051
      7 O          63.7678   86.8269   14.5180 O.2     1  UNL1       -0.2262
      8 C          61.9350   85.7341    9.4829 C.ar    1  UNL1        0.0137
      9 C          60.5580   86.1628    9.0707 C.ar    1  UNL1       -0.0010
     10 C          60.0549   85.8465    7.6934 C.ar    1  UNL1       -0.0002
     11 C          60.9289   85.1015    6.7284 C.ar    1  UNL1       -0.0000
     12 C          62.3059   84.6728    7.1407 C.ar    1  UNL1       -0.0002
     13 C          62.8090   84.9891    8.5180 C.ar    1  UNL1       -0.0010
     14 C          63.4001   89.5883   14.8361 C.3     1  UNL1        0.0265
     15 C          63.6531   89.5911   13.3577 C.3     1  UNL1        0.1011
     16 C          64.3111   90.7742   12.7116 C.ar    1  UNL1       -0.0042
     17 C          63.8949   91.2057   11.3366 C.ar    1  UNL1       -0.0026
     18 C          64.5529   92.3888   10.6906 C.ar    1  UNL1        0.0012
     19 C          65.6271   93.1403   11.4196 C.ar    1  UNL1        0.0176
     20 C          66.0433   92.7088   12.7945 C.ar    1  UNL1        0.0012
     21 C          65.3853   91.5258   13.4405 C.ar    1  UNL1       -0.0026
     22 C          66.2851   94.3235   10.7735 C.ar    1  UNL1        0.0813
     23 C          66.2110   95.6720   11.4261 C.ar    1  UNL1        0.0191
     24 C          66.8690   96.8551   10.7801 C.ar    1  UNL1        0.0031
     25 C          67.6010   96.6896    9.4813 C.ar    1  UNL1        0.0207
     26 C          67.6751   95.3410    8.8287 C.ar    1  UNL1        0.0988
     27 N          67.0171   94.1580    9.4747 N.ar    1  UNL1       -0.2438
     28 C          62.3207   84.5584   10.9620 C.3     1  UNL1        0.0471
     29 C          63.1136   83.8124   11.9939 C.3     1  UNL1        0.0357
     30 C          63.2408   82.3202   11.9076 C.3     1  UNL1        0.1373
     31 O          64.1770   81.5930   12.8267 O.3     1  UNL1       -0.3820
     32 H          65.0911   81.8459   12.6233 H       1  UNL1        0.2104
@<TRIPOS>BOND
     1    15    14    1
     2    15    16    1
     3    16    17   ar
     4    17    18   ar
     5    18    19   ar
     6    19    22    1
     7    22    23   ar
     8    23    24   ar
     9    24    25   ar
    10    25    26   ar
    11    26    27   ar
    12    19    20   ar
    13    20    21   ar
    14    15     1    1
    15     1     2    1
    16     2     3    1
    17     3     4    1
    18     4    28    1
    19    28    29    1
    20    29    30    1
    21    30    31    1
    22     4     8    1
    23     8     9   ar
    24     9    10   ar
    25    10    11   ar
    26    11    12   ar
    27    12    13   ar
    28     4     5    1
    29     5     6    1
    30     6     7    2
    31    21    16   ar
    32     6     1   am
    33    27    22   ar
    34    13     8   ar
    35    31    32    1
@<TRIPOS>MOLECULE
*****
 32 35 0 0 0
SMALL
GASTEIGER

@<TRIPOS>ATOM
      1 N          62.5025   87.9102   12.2528 N.am    1  UNL1       -0.2438
      2 C          62.1435   86.8426   11.2622 C.3     1  UNL1        0.1009
      3 C          62.6343   85.4392   11.4612 C.3     1  UNL1        0.0661
      4 C          63.4840   85.1034   12.6508 C.3     1  UNL1        0.1578
      5 O          63.8431   86.1710   13.6414 O.3     1  UNL1       -0.4375
      6 C          63.3523   87.5744   13.4424 C.2     1  UNL1        0.4051
      7 O          63.7113   88.6421   14.4329 O.2     1  UNL1       -0.2262
      8 C          63.4114   83.7567   11.9941 C.ar    1  UNL1        0.0137
      9 C          64.1780   83.4956   10.7315 C.ar    1  UNL1       -0.0010
     10 C          64.1053   82.1489   10.0749 C.ar    1  UNL1       -0.0002
     11 C          63.2661   81.0634   10.6809 C.ar    1  UNL1       -0.0000
     12 C          62.4995   81.3244   11.9435 C.ar    1  UNL1       -0.0002
     13 C          62.5721   82.6711   12.6001 C.ar    1  UNL1       -0.0010
     14 C          60.5636   89.6395   12.2700 C.3     1  UNL1        0.0265
     15 C          62.0117   89.3136   12.0538 C.3     1  UNL1        0.1011
     16 C          62.9691   90.3911   11.6385 C.ar    1  UNL1       -0.0042
     17 C          62.9605   90.8989   10.2271 C.ar    1  UNL1       -0.0026
     18 C          63.9178   91.9764    9.8119 C.ar    1  UNL1        0.0012
     19 C          64.8838   92.5461   10.8081 C.ar    1  UNL1        0.0176
     20 C          64.8925   92.0383   12.2194 C.ar    1  UNL1        0.0012
     21 C          63.9351   90.9608   12.6346 C.ar    1  UNL1       -0.0026
     22 C          65.8412   93.6236   10.3928 C.ar    1  UNL1        0.0813
     23 C          67.0997   93.2667    9.6589 C.ar    1  UNL1        0.0191
     24 C          68.0571   94.3442    9.2436 C.ar    1  UNL1        0.0031
     25 C          67.7559   95.7787    9.5623 C.ar    1  UNL1        0.0207
     26 C          66.4973   96.1356   10.2962 C.ar    1  UNL1        0.0988
     27 N          65.5400   95.0581   10.7114 N.ar    1  UNL1       -0.2438
     28 C          64.3086   84.2999   13.6123 C.3     1  UNL1        0.0471
     29 C          64.1700   84.5245   15.0889 C.3     1  UNL1        0.0357
     30 C          62.8905   84.1665   15.7851 C.3     1  UNL1        0.1373
     31 O          61.6393   84.9436   15.5011 O.3     1  UNL1       -0.3820
     32 H          61.7462   85.8548   15.8162 H       1  UNL1        0.2104
@<TRIPOS>BOND
     1    15    14    1
     2    15    16    1
     3    16    17   ar
     4    17    18   ar
     5    18    19   ar
     6    19    22    1
     7    22    23   ar
     8    23    24   ar
     9    24    25   ar
    10    25    26   ar
    11    26    27   ar
    12    19    20   ar
    13    20    21   ar
    14    15     1    1
    15     1     2    1
    16     2     3    1
    17     3     4    1
    18     4    28    1
    19    28    29    1
    20    29    30    1
    21    30    31    1
    22     4     8    1
    23     8     9   ar
    24     9    10   ar
    25    10    11   ar
    26    11    12   ar
    27    12    13   ar
    28     4     5    1
    29     5     6    1
    30     6     7    2
    31    21    16   ar
    32     6     1   am
    33    27    22   ar
    34    13     8   ar
    35    31    32    1
