@<TRIPOS>MOLECULE
*****
 33 36 0 0 0
SMALL
GASTEIGER

@<TRIPOS>ATOM
      1 C          63.6415   89.2063   13.5772 C.2     1  UNL1        0.2320
      2 O          63.6498   87.7588   13.1841 O.2     1  UNL1       -0.2744
      3 N          62.5626   90.1155   13.0679 N.am    1  UNL1       -0.2639
      4 H          62.5571   91.0656   13.3259 H       1  UNL1        0.1567
      5 C          61.4921   89.5772   12.1656 C.ar    1  UNL1        0.1655
      6 N          61.7039   88.6710   10.9892 N.ar    1  UNL1       -0.2239
      7 C          60.3646   88.3843   10.3778 C.ar    1  UNL1        0.0913
      8 C          59.3249   89.1133   11.1763 C.ar    1  UNL1        0.0573
      9 S          60.0217   89.8505   12.2812 S.2     1  UNL1       -0.0508
     10 C          60.1096   87.5203    9.1785 C.ar    1  UNL1        0.0403
     11 C          58.8492   87.4898    8.3657 C.ar    1  UNL1        0.1021
     12 N          59.0309   86.4857    7.2662 N.ar    1  UNL1       -0.2269
     13 C          60.4035   85.8956    7.3995 C.ar    1  UNL1        0.1406
     14 N          61.1325   84.8587    6.5974 N.ar    1  UNL1       -0.3374
     15 C          62.5281   84.4612    6.9771 C.ar    1  UNL1        0.0735
     16 C          63.1947   85.1006    8.1590 C.ar    1  UNL1        0.0186
     17 C          62.4658   86.1375    8.9611 C.ar    1  UNL1        0.0046
     18 C          61.0702   86.5350    8.5813 C.ar    1  UNL1        0.0370
     19 H          60.6949   84.4391    5.8217 H       1  UNL1        0.1674
     20 C          64.7120   89.7447   14.4795 C.3     1  UNL1        0.1117
     21 C          65.9807   92.9547   12.5209 C.ar    1  UNL1        0.1216
     22 C          66.5412   93.7711   13.6476 C.ar    1  UNL1        0.0199
     23 C          66.4919   93.2454   15.0516 C.ar    1  UNL1        0.0011
     24 C          65.8822   91.9032   15.3289 C.ar    1  UNL1       -0.0037
     25 C          65.3217   91.0868   14.2021 C.ar    1  UNL1       -0.0117
     26 C          65.3710   91.6126   12.7981 C.ar    1  UNL1        0.0161
     27 S          66.0300   93.4805   11.1169 S.O2    1  UNL1        0.0602
     28 O          65.2269   92.3035   10.6480 O.2     1  UNL1       -0.1530
     29 O          66.8331   94.6574   11.5858 O.2     1  UNL1       -0.1530
     30 N          66.0792   94.0062    9.7129 N.3     1  UNL1       -0.1794
     31 H          65.4781   93.4030    9.1514 H       1  UNL1        0.1488
     32 C          68.3066   92.9129    8.9427 C.3     1  UNL1        0.0203
     33 C          67.3918   94.1006    8.9930 C.3     1  UNL1        0.0915
@<TRIPOS>BOND
     1    32    33    1
     2    33    30    1
     3    30    27    1
     4    27    28    2
     5    27    29    2
     6    27    21    1
     7    21    22   ar
     8    22    23   ar
     9    23    24   ar
    10    24    25   ar
    11    25    20    1
    12    20     1    1
    13     1     2    2
    14     1     3   am
    15     3     5    1
    16     5     6   ar
    17     6     7   ar
    18     7    10    1
    19    10    11   ar
    20    11    12   ar
    21    12    13   ar
    22    13    14   ar
    23    14    15   ar
    24    15    16   ar
    25    16    17   ar
    26    17    18   ar
    27     7     8   ar
    28     8     9   ar
    29    25    26   ar
    30    26    21   ar
    31     9     5   ar
    32    18    10   ar
    33    18    13    1
    34    30    31    1
    35     3     4    1
    36    14    19    1
@<TRIPOS>MOLECULE
*****
 33 36 0 0 0
SMALL
GASTEIGER

@<TRIPOS>ATOM
      1 C          63.8208   89.4936   14.9265 C.2     1  UNL1        0.2320
      2 O          62.5160   89.3864   15.6587 O.2     1  UNL1       -0.2744
      3 N          64.5696   88.2519   14.5427 N.am    1  UNL1       -0.2639
      4 H          65.4260   88.3222   14.0621 H       1  UNL1        0.1567
      5 C          64.0138   86.9030   14.8911 C.ar    1  UNL1        0.1655
      6 N          63.7355   85.7881   13.9269 N.ar    1  UNL1       -0.2239
      7 C          63.1883   84.6282   14.7046 C.ar    1  UNL1        0.0913
      8 C          63.1282   85.0261   16.1496 C.ar    1  UNL1        0.0573
      9 S          63.6384   86.4320   16.2649 S.2     1  UNL1       -0.0508
     10 C          62.7739   83.3030   14.1371 C.ar    1  UNL1        0.0403
     11 C          61.9182   82.2792   14.8224 C.ar    1  UNL1        0.1021
     12 N          61.7578   81.1124   13.8935 N.ar    1  UNL1       -0.2269
     13 C          62.5145   81.4151   12.6341 C.ar    1  UNL1        0.1406
     14 N          62.7127   80.6328   11.3698 N.ar    1  UNL1       -0.3374
     15 C          63.5390   81.2044   10.2560 C.ar    1  UNL1        0.0735
     16 C          64.1669   82.5583   10.4066 C.ar    1  UNL1        0.0186
     17 C          63.9687   83.3406   11.6709 C.ar    1  UNL1        0.0046
     18 C          63.1424   82.7690   12.7847 C.ar    1  UNL1        0.0370
     19 H          62.3006   79.7442   11.2709 H       1  UNL1        0.1674
     20 C          64.3767   90.8425   14.5781 C.3     1  UNL1        0.1117
     21 C          65.4308   92.7618   11.2683 C.ar    1  UNL1        0.1216
     22 C          64.4307   92.2155   10.2930 C.ar    1  UNL1        0.0199
     23 C          63.4125   91.2115   10.7461 C.ar    1  UNL1        0.0011
     24 C          63.3945   90.7538   12.1745 C.ar    1  UNL1       -0.0037
     25 C          64.3947   91.3002   13.1498 C.ar    1  UNL1       -0.0117
     26 C          65.4129   92.3042   12.6966 C.ar    1  UNL1        0.0161
     27 S          66.4490   93.7658   10.8152 S.O2    1  UNL1        0.0602
     28 O          67.5415   92.7666   11.0560 O.2     1  UNL1       -0.1530
     29 O          65.3566   94.7651   10.5744 O.2     1  UNL1       -0.1530
     30 N          67.4672   94.7698   10.3621 N.3     1  UNL1       -0.1794
     31 H          67.2277   95.6546   10.8096 H       1  UNL1        0.1488
     32 C          67.3842   96.4374    8.3715 C.3     1  UNL1        0.0203
     33 C          67.6386   95.0567    8.8998 C.3     1  UNL1        0.0915
@<TRIPOS>BOND
     1    32    33    1
     2    33    30    1
     3    30    27    1
     4    27    28    2
     5    27    29    2
     6    27    21    1
     7    21    22   ar
     8    22    23   ar
     9    23    24   ar
    10    24    25   ar
    11    25    20    1
    12    20     1    1
    13     1     2    2
    14     1     3   am
    15     3     5    1
    16     5     6   ar
    17     6     7   ar
    18     7    10    1
    19    10    11   ar
    20    11    12   ar
    21    12    13   ar
    22    13    14   ar
    23    14    15   ar
    24    15    16   ar
    25    16    17   ar
    26    17    18   ar
    27     7     8   ar
    28     8     9   ar
    29    25    26   ar
    30    26    21   ar
    31     9     5   ar
    32    18    10   ar
    33    18    13    1
    34    30    31    1
    35     3     4    1
    36    14    19    1
@<TRIPOS>MOLECULE
*****
 33 36 0 0 0
SMALL
GASTEIGER

@<TRIPOS>ATOM
      1 C          63.6104   89.1705   13.9832 C.2     1  UNL1        0.2320
      2 O          64.2877   87.8993   14.4019 O.2     1  UNL1       -0.2744
      3 N          62.7746   89.2000   12.7381 N.am    1  UNL1       -0.2639
      4 H          62.3301   90.0344   12.4632 H       1  UNL1        0.1567
      5 C          62.6160   87.9584   11.9116 C.ar    1  UNL1        0.1655
      6 N          63.1170   86.5907   12.2699 N.ar    1  UNL1       -0.2239
      7 C          62.7392   85.6535   11.1615 C.ar    1  UNL1        0.0913
      8 C          62.0045   86.4418   10.1181 C.ar    1  UNL1        0.0573
      9 S          61.9284   87.8663   10.5816 S.2     1  UNL1       -0.0508
     10 C          63.0427   84.1855   11.1062 C.ar    1  UNL1        0.0403
     11 C          63.6641   83.4566    9.9519 C.ar    1  UNL1        0.1021
     12 N          63.7835   82.0094   10.3278 N.ar    1  UNL1       -0.2269
     13 C          63.2358   81.8439   11.7143 C.ar    1  UNL1        0.1406
     14 N          63.0948   80.6422   12.6010 N.ar    1  UNL1       -0.3374
     15 C          62.4960   80.7856   13.9688 C.ar    1  UNL1        0.0735
     16 C          62.0381   82.1306   14.4498 C.ar    1  UNL1        0.0186
     17 C          62.1791   83.3322   13.5632 C.ar    1  UNL1        0.0046
     18 C          62.7779   83.1888   12.1954 C.ar    1  UNL1        0.0370
     19 H          63.3953   79.7595   12.2852 H       1  UNL1        0.1674
     20 C          63.7690   90.4122   14.8097 C.3     1  UNL1        0.1117
     21 C          65.9391   92.9043   12.6118 C.ar    1  UNL1        0.1216
     22 C          66.8287   93.5051   13.6595 C.ar    1  UNL1        0.0199
     23 C          66.6984   93.0750   15.0906 C.ar    1  UNL1        0.0011
     24 C          65.6785   92.0440   15.4740 C.ar    1  UNL1       -0.0037
     25 C          64.7889   91.4432   14.4263 C.ar    1  UNL1       -0.0117
     26 C          64.9192   91.8734   12.9952 C.ar    1  UNL1        0.0161
     27 S          66.0694   93.3344   11.1807 S.O2    1  UNL1        0.0602
     28 O          65.2915   92.1274   10.7471 O.2     1  UNL1       -0.1530
     29 O          66.8473   94.5414   11.6143 O.2     1  UNL1       -0.1530
     30 N          66.1996   93.7645    9.7496 N.3     1  UNL1       -0.1794
     31 H          65.6592   93.1025    9.1928 H       1  UNL1        0.1488
     32 C          68.4533   92.6570    9.0831 C.3     1  UNL1        0.0203
     33 C          67.5556   93.8583    9.1151 C.3     1  UNL1        0.0915
@<TRIPOS>BOND
     1    32    33    1
     2    33    30    1
     3    30    27    1
     4    27    28    2
     5    27    29    2
     6    27    21    1
     7    21    22   ar
     8    22    23   ar
     9    23    24   ar
    10    24    25   ar
    11    25    20    1
    12    20     1    1
    13     1     2    2
    14     1     3   am
    15     3     5    1
    16     5     6   ar
    17     6     7   ar
    18     7    10    1
    19    10    11   ar
    20    11    12   ar
    21    12    13   ar
    22    13    14   ar
    23    14    15   ar
    24    15    16   ar
    25    16    17   ar
    26    17    18   ar
    27     7     8   ar
    28     8     9   ar
    29    25    26   ar
    30    26    21   ar
    31     9     5   ar
    32    18    10   ar
    33    18    13    1
    34    30    31    1
    35     3     4    1
    36    14    19    1
@<TRIPOS>MOLECULE
*****
 33 36 0 0 0
SMALL
GASTEIGER

@<TRIPOS>ATOM
      1 C          62.7381   89.0245   12.0533 C.2     1  UNL1        0.2320
      2 O          61.7270   87.9910   11.6539 O.2     1  UNL1       -0.2744
      3 N          63.7803   88.6962   13.0809 N.am    1  UNL1       -0.2639
      4 H          64.4440   89.3745   13.3430 H       1  UNL1        0.1567
      5 C          63.8114   87.3345   13.7091 C.ar    1  UNL1        0.1655
      6 N          63.2275   86.0814   13.1270 N.ar    1  UNL1       -0.2239
      7 C          63.4870   84.9592   14.0878 C.ar    1  UNL1        0.0913
      8 C          64.2314   85.5186   15.2638 C.ar    1  UNL1        0.0573
      9 S          64.4319   86.9866   15.0297 S.2     1  UNL1       -0.0508
     10 C          63.0746   83.5286   13.9049 C.ar    1  UNL1        0.0403
     11 C          62.4276   82.6582   14.9410 C.ar    1  UNL1        0.1021
     12 N          62.1900   81.3090   14.3301 N.ar    1  UNL1       -0.2269
     13 C          62.6902   81.3456   12.9164 C.ar    1  UNL1        0.1406
     14 N          62.7184   80.3070   11.8346 N.ar    1  UNL1       -0.3374
     15 C          63.2934   80.6402   10.4899 C.ar    1  UNL1        0.0735
     16 C          63.8402   82.0121   10.2270 C.ar    1  UNL1        0.0186
     17 C          63.8119   83.0507   11.3089 C.ar    1  UNL1        0.0046
     18 C          63.2369   82.7174   12.6536 C.ar    1  UNL1        0.0370
     19 H          62.3595   79.4066   12.0071 H       1  UNL1        0.1674
     20 C          62.7071   90.3863   11.4251 C.3     1  UNL1        0.1117
     21 C          65.5739   92.5091   13.1643 C.ar    1  UNL1        0.1216
     22 C          66.1769   93.1982   11.9763 C.ar    1  UNL1        0.0199
     23 C          65.6233   92.9500   10.6044 C.ar    1  UNL1        0.0011
     24 C          64.4666   92.0126   10.4207 C.ar    1  UNL1       -0.0037
     25 C          63.8636   91.3235   11.6088 C.ar    1  UNL1       -0.0117
     26 C          64.4173   91.5718   12.9807 C.ar    1  UNL1        0.0161
     27 S          66.1275   92.7573   14.5362 S.O2    1  UNL1        0.0602
     28 O          65.9549   91.3048   14.8686 O.2     1  UNL1       -0.1530
     29 O          66.3000   94.2098   14.2037 O.2     1  UNL1       -0.1530
     30 N          66.6810   93.0055   15.9080 N.3     1  UNL1       -0.1794
     31 H          66.5950   94.0066   16.0836 H       1  UNL1        0.1488
     32 C          69.1391   92.6543   15.1435 C.3     1  UNL1        0.0203
     33 C          68.0987   92.6308   16.2238 C.3     1  UNL1        0.0915
@<TRIPOS>BOND
     1    32    33    1
     2    33    30    1
     3    30    27    1
     4    27    28    2
     5    27    29    2
     6    27    21    1
     7    21    22   ar
     8    22    23   ar
     9    23    24   ar
    10    24    25   ar
    11    25    20    1
    12    20     1    1
    13     1     2    2
    14     1     3   am
    15     3     5    1
    16     5     6   ar
    17     6     7   ar
    18     7    10    1
    19    10    11   ar
    20    11    12   ar
    21    12    13   ar
    22    13    14   ar
    23    14    15   ar
    24    15    16   ar
    25    16    17   ar
    26    17    18   ar
    27     7     8   ar
    28     8     9   ar
    29    25    26   ar
    30    26    21   ar
    31     9     5   ar
    32    18    10   ar
    33    18    13    1
    34    30    31    1
    35     3     4    1
    36    14    19    1
@<TRIPOS>MOLECULE
*****
 33 36 0 0 0
SMALL
GASTEIGER

@<TRIPOS>ATOM
      1 C          64.4218   85.9371   14.7377 C.2     1  UNL1        0.2320
      2 O          65.8182   86.2658   15.1760 O.2     1  UNL1       -0.2744
      3 N          63.3823   87.0165   14.6732 N.am    1  UNL1       -0.2639
      4 H          62.4658   86.8008   14.3855 H       1  UNL1        0.1567
      5 C          63.7391   88.4246   15.0469 C.ar    1  UNL1        0.1655
      6 N          64.6366   89.3425   14.2710 N.ar    1  UNL1       -0.2239
      7 C          64.7132   90.6473   15.0068 C.ar    1  UNL1        0.0913
      8 C          63.8630   90.5360   16.2376 C.ar    1  UNL1        0.0573
      9 S          63.2610   89.1624   16.2624 S.2     1  UNL1       -0.0508
     10 C          65.5016   91.8520   14.5858 C.ar    1  UNL1        0.0403
     11 C          66.3646   92.6961   15.4760 C.ar    1  UNL1        0.1021
     12 N          66.9617   93.7898   14.6410 N.ar    1  UNL1       -0.2269
     13 C          66.4677   93.6217   13.2347 C.ar    1  UNL1        0.1406
     14 N          66.7230   94.4044   11.9809 N.ar    1  UNL1       -0.3374
     15 C          66.0759   93.9894   10.6929 C.ar    1  UNL1        0.0735
     16 C          65.1735   92.7917   10.6587 C.ar    1  UNL1        0.0186
     17 C          64.9181   92.0090   11.9126 C.ar    1  UNL1        0.0046
     18 C          65.5653   92.4240   13.2006 C.ar    1  UNL1        0.0370
     19 H          67.3153   95.1904   12.0033 H       1  UNL1        0.1674
     20 C          64.0650   84.5289   14.3639 C.3     1  UNL1        0.1117
     21 C          62.9411   84.7144   10.5622 C.ar    1  UNL1        0.1216
     22 C          63.4981   83.4239   10.0386 C.ar    1  UNL1        0.0199
     23 C          64.2442   82.5016   10.9567 C.ar    1  UNL1        0.0011
     24 C          64.4331   82.8700   12.3986 C.ar    1  UNL1       -0.0037
     25 C          63.8760   84.1606   12.9221 C.ar    1  UNL1       -0.0117
     26 C          63.1300   85.0828   12.0039 C.ar    1  UNL1        0.0161
     27 S          62.1950   85.6366    9.6441 S.O2    1  UNL1        0.0602
     28 O          61.2482   85.9780   10.7563 O.2     1  UNL1       -0.1530
     29 O          63.1419   85.2953    8.5319 O.2     1  UNL1       -0.1530
     30 N          61.4490   86.5589    8.7260 N.3     1  UNL1       -0.1794
     31 H          61.0119   87.2690    9.3134 H       1  UNL1        0.1488
     32 C          59.0373   86.6933    7.7690 C.3     1  UNL1        0.0203
     33 C          60.3752   86.0175    7.8294 C.3     1  UNL1        0.0915
@<TRIPOS>BOND
     1    32    33    1
     2    33    30    1
     3    30    27    1
     4    27    28    2
     5    27    29    2
     6    27    21    1
     7    21    22   ar
     8    22    23   ar
     9    23    24   ar
    10    24    25   ar
    11    25    20    1
    12    20     1    1
    13     1     2    2
    14     1     3   am
    15     3     5    1
    16     5     6   ar
    17     6     7   ar
    18     7    10    1
    19    10    11   ar
    20    11    12   ar
    21    12    13   ar
    22    13    14   ar
    23    14    15   ar
    24    15    16   ar
    25    16    17   ar
    26    17    18   ar
    27     7     8   ar
    28     8     9   ar
    29    25    26   ar
    30    26    21   ar
    31     9     5   ar
    32    18    10   ar
    33    18    13    1
    34    30    31    1
    35     3     4    1
    36    14    19    1
@<TRIPOS>MOLECULE
*****
 33 36 0 0 0
SMALL
GASTEIGER

@<TRIPOS>ATOM
      1 C          62.2157   86.5911   10.3475 C.2     1  UNL1        0.2320
      2 O          62.7732   86.9647    9.0060 O.2     1  UNL1       -0.2744
      3 N          62.1134   87.6233   11.4311 N.am    1  UNL1       -0.2639
      4 H          61.7475   87.3781   12.3116 H       1  UNL1        0.1567
      5 C          62.5686   89.0290   11.1732 C.ar    1  UNL1        0.1655
      6 N          63.7194   89.7200   11.8427 N.ar    1  UNL1       -0.2239
      7 C          63.8151   91.1087   11.2838 C.ar    1  UNL1        0.0913
      8 C          62.7233   91.2760   10.2689 C.ar    1  UNL1        0.0573
      9 S          61.9530   89.9908   10.2005 S.2     1  UNL1       -0.0508
     10 C          64.8250   92.1476   11.6717 C.ar    1  UNL1        0.0403
     11 C          65.3875   93.2091   10.7735 C.ar    1  UNL1        0.1021
     12 N          66.3600   94.0250   11.5727 N.ar    1  UNL1       -0.2269
     13 C          66.3985   93.4678   12.9648 C.ar    1  UNL1        0.1406
     14 N          67.1748   93.8670   14.1846 N.ar    1  UNL1       -0.3374
     15 C          67.0025   93.1060   15.4656 C.ar    1  UNL1        0.0735
     16 C          66.0538   91.9457   15.5268 C.ar    1  UNL1        0.0186
     17 C          65.2775   91.5464   14.3070 C.ar    1  UNL1        0.0046
     18 C          65.4498   92.3075   13.0260 C.ar    1  UNL1        0.0370
     19 H          67.7975   94.6286   14.1444 H       1  UNL1        0.1674
     20 C          61.7604   85.1853   10.6055 C.3     1  UNL1        0.1117
     21 C          63.3496   84.1825   14.1010 C.ar    1  UNL1        0.1216
     22 C          63.7090   82.7483   13.8480 C.ar    1  UNL1        0.0199
     23 C          63.4189   82.1265   12.5142 C.ar    1  UNL1        0.0011
     24 C          62.7694   82.9388   11.4333 C.ar    1  UNL1       -0.0037
     25 C          62.4100   84.3730   11.6863 C.ar    1  UNL1       -0.0117
     26 C          62.7001   84.9948   13.0202 C.ar    1  UNL1        0.0161
     27 S          63.6397   84.8043   15.4349 S.O2    1  UNL1        0.0602
     28 O          64.9103   85.3845   14.8880 O.2     1  UNL1       -0.1530
     29 O          62.3691   84.2242   15.9817 O.2     1  UNL1       -0.1530
     30 N          63.9298   85.4262   16.7687 N.3     1  UNL1       -0.1794
     31 H          64.1033   84.6600   17.4193 H       1  UNL1        0.1488
     32 C          62.9450   87.7990   17.1558 C.3     1  UNL1        0.0203
     33 C          62.9151   86.3219   17.4153 C.3     1  UNL1        0.0915
@<TRIPOS>BOND
     1    32    33    1
     2    33    30    1
     3    30    27    1
     4    27    28    2
     5    27    29    2
     6    27    21    1
     7    21    22   ar
     8    22    23   ar
     9    23    24   ar
    10    24    25   ar
    11    25    20    1
    12    20     1    1
    13     1     2    2
    14     1     3   am
    15     3     5    1
    16     5     6   ar
    17     6     7   ar
    18     7    10    1
    19    10    11   ar
    20    11    12   ar
    21    12    13   ar
    22    13    14   ar
    23    14    15   ar
    24    15    16   ar
    25    16    17   ar
    26    17    18   ar
    27     7     8   ar
    28     8     9   ar
    29    25    26   ar
    30    26    21   ar
    31     9     5   ar
    32    18    10   ar
    33    18    13    1
    34    30    31    1
    35     3     4    1
    36    14    19    1
@<TRIPOS>MOLECULE
*****
 33 36 0 0 0
SMALL
GASTEIGER

@<TRIPOS>ATOM
      1 C          61.9495   88.0895   11.5817 C.2     1  UNL1        0.2320
      2 O          61.4358   89.4864   11.3953 O.2     1  UNL1       -0.2744
      3 N          63.0926   87.8294   12.5174 N.am    1  UNL1       -0.2639
      4 H          63.4297   86.9126   12.6398 H       1  UNL1        0.1567
      5 C          63.7219   88.9662   13.2668 C.ar    1  UNL1        0.1655
      6 N          64.3478   90.1853   12.6568 N.ar    1  UNL1       -0.2239
      7 C          64.8486   91.0560   13.7707 C.ar    1  UNL1        0.0913
      8 C          64.5324   90.3751   15.0693 C.ar    1  UNL1        0.0573
      9 S          63.8361   89.0835   14.7578 S.2     1  UNL1       -0.0508
     10 C          65.5437   92.3759   13.6137 C.ar    1  UNL1        0.0403
     11 C          66.1828   93.1721   14.7126 C.ar    1  UNL1        0.1021
     12 N          66.7558   94.4196   14.1082 N.ar    1  UNL1       -0.2269
     13 C          66.4709   94.3945   12.6358 C.ar    1  UNL1        0.1406
     14 N          66.7968   95.3586   11.5338 N.ar    1  UNL1       -0.3374
     15 C          66.3736   95.0595   10.1262 C.ar    1  UNL1        0.0735
     16 C          65.6245   93.7965    9.8205 C.ar    1  UNL1        0.0186
     17 C          65.2986   92.8324   10.9225 C.ar    1  UNL1        0.0046
     18 C          65.7218   93.1314   12.3301 C.ar    1  UNL1        0.0370
     19 H          67.2884   96.1876   11.7344 H       1  UNL1        0.1674
     20 C          61.3201   86.9527   10.8323 C.3     1  UNL1        0.1117
     21 C          63.1442   83.4499   11.2239 C.ar    1  UNL1        0.1216
     22 C          63.7405   83.2865    9.8573 C.ar    1  UNL1        0.0199
     23 C          63.5301   84.3451    8.8157 C.ar    1  UNL1        0.0011
     24 C          62.7232   85.5672    9.1407 C.ar    1  UNL1       -0.0037
     25 C          62.1269   85.7306   10.5074 C.ar    1  UNL1       -0.0117
     26 C          62.3374   84.6719   11.5490 C.ar    1  UNL1        0.0161
     27 S          63.3546   82.3913   12.2656 S.O2    1  UNL1        0.0602
     28 O          63.0842   81.3295   11.2412 O.2     1  UNL1       -0.1530
     29 O          63.6250   83.4531   13.2901 O.2     1  UNL1       -0.1530
     30 N          63.5650   81.3327   13.3073 N.3     1  UNL1       -0.1794
     31 H          64.3503   80.7625   12.9931 H       1  UNL1        0.1488
     32 C          61.1253   80.9212   14.0999 C.3     1  UNL1        0.0203
     33 C          62.4528   80.3866   13.6505 C.3     1  UNL1        0.0915
@<TRIPOS>BOND
     1    32    33    1
     2    33    30    1
     3    30    27    1
     4    27    28    2
     5    27    29    2
     6    27    21    1
     7    21    22   ar
     8    22    23   ar
     9    23    24   ar
    10    24    25   ar
    11    25    20    1
    12    20     1    1
    13     1     2    2
    14     1     3   am
    15     3     5    1
    16     5     6   ar
    17     6     7   ar
    18     7    10    1
    19    10    11   ar
    20    11    12   ar
    21    12    13   ar
    22    13    14   ar
    23    14    15   ar
    24    15    16   ar
    25    16    17   ar
    26    17    18   ar
    27     7     8   ar
    28     8     9   ar
    29    25    26   ar
    30    26    21   ar
    31     9     5   ar
    32    18    10   ar
    33    18    13    1
    34    30    31    1
    35     3     4    1
    36    14    19    1
@<TRIPOS>MOLECULE
*****
 33 36 0 0 0
SMALL
GASTEIGER

@<TRIPOS>ATOM
      1 C          63.5473   89.9718   15.3764 C.2     1  UNL1        0.2320
      2 O          62.0778   89.6746   15.4246 O.2     1  UNL1       -0.2744
      3 N          64.4753   89.0494   14.6430 N.am    1  UNL1       -0.2639
      4 H          65.4398   89.2444   14.6114 H       1  UNL1        0.1567
      5 C          63.9340   87.8298   13.9580 C.ar    1  UNL1        0.1655
      6 N          63.8712   86.4477   14.5375 N.ar    1  UNL1       -0.2239
      7 C          63.2587   85.5418   13.5108 C.ar    1  UNL1        0.0913
      8 C          62.9429   86.3640   12.2966 C.ar    1  UNL1        0.0573
      9 S          63.3602   87.7780   12.5730 S.2     1  UNL1       -0.0508
     10 C          63.0063   84.0718   13.6702 C.ar    1  UNL1        0.0403
     11 C          62.5849   83.3815   14.9335 C.ar    1  UNL1        0.1021
     12 N          62.4492   81.9171   14.6383 N.ar    1  UNL1       -0.2269
     13 C          62.7867   81.7024   13.1926 C.ar    1  UNL1        0.1406
     14 N          62.8249   80.4663   12.3437 N.ar    1  UNL1       -0.3374
     15 C          63.2075   80.5620   10.8965 C.ar    1  UNL1        0.0735
     16 C          63.5518   81.8937   10.2982 C.ar    1  UNL1        0.0186
     17 C          63.5136   83.1298   11.1471 C.ar    1  UNL1        0.0046
     18 C          63.1310   83.0341   12.5943 C.ar    1  UNL1        0.0370
     19 H          62.5989   79.5923   12.7364 H       1  UNL1        0.1674
     20 C          64.0887   91.1915   16.0615 C.3     1  UNL1        0.1117
     21 C          66.7778   92.6388   13.5269 C.ar    1  UNL1        0.1216
     22 C          67.7890   93.2050   14.4792 C.ar    1  UNL1        0.0199
     23 C          67.5668   93.1000   15.9589 C.ar    1  UNL1        0.0011
     24 C          66.3333   92.4288   16.4864 C.ar    1  UNL1       -0.0037
     25 C          65.3221   91.8626   15.5340 C.ar    1  UNL1       -0.0117
     26 C          65.5444   91.9676   14.0543 C.ar    1  UNL1        0.0161
     27 S          67.0000   92.7437   12.0472 S.O2    1  UNL1        0.0602
     28 O          68.3049   92.0181   12.1916 O.2     1  UNL1       -0.1530
     29 O          65.6951   93.4693   11.9027 O.2     1  UNL1       -0.1530
     30 N          67.2222   92.8487   10.5674 N.3     1  UNL1       -0.1794
     31 H          66.3299   92.6387   10.1201 H       1  UNL1        0.1488
     32 C          68.7380   92.3281    8.5226 C.3     1  UNL1        0.0203
     33 C          68.2540   91.9877    9.9010 C.3     1  UNL1        0.0915
@<TRIPOS>BOND
     1    32    33    1
     2    33    30    1
     3    30    27    1
     4    27    28    2
     5    27    29    2
     6    27    21    1
     7    21    22   ar
     8    22    23   ar
     9    23    24   ar
    10    24    25   ar
    11    25    20    1
    12    20     1    1
    13     1     2    2
    14     1     3   am
    15     3     5    1
    16     5     6   ar
    17     6     7   ar
    18     7    10    1
    19    10    11   ar
    20    11    12   ar
    21    12    13   ar
    22    13    14   ar
    23    14    15   ar
    24    15    16   ar
    25    16    17   ar
    26    17    18   ar
    27     7     8   ar
    28     8     9   ar
    29    25    26   ar
    30    26    21   ar
    31     9     5   ar
    32    18    10   ar
    33    18    13    1
    34    30    31    1
    35     3     4    1
    36    14    19    1
@<TRIPOS>MOLECULE
*****
 33 36 0 0 0
SMALL
GASTEIGER

@<TRIPOS>ATOM
      1 C          61.3802   87.7711   11.3283 C.2     1  UNL1        0.2320
      2 O          60.3706   88.7881   11.7714 O.2     1  UNL1       -0.2744
      3 N          62.8454   88.0511   11.4852 N.am    1  UNL1       -0.2639
      4 H          63.5080   87.3836   11.1943 H       1  UNL1        0.1567
      5 C          63.3010   89.3481   12.0851 C.ar    1  UNL1        0.1655
      6 N          63.9152   89.5243   13.4422 N.ar    1  UNL1       -0.2239
      7 C          64.2163   90.9818   13.6292 C.ar    1  UNL1        0.0913
      8 C          63.7882   91.7065   12.3876 C.ar    1  UNL1        0.0573
      9 S          63.2225   90.6969   11.4333 S.2     1  UNL1       -0.0508
     10 C          64.8366   91.6052   14.8443 C.ar    1  UNL1        0.0403
     11 C          64.1461   91.8700   16.1493 C.ar    1  UNL1        0.1021
     12 N          65.1391   92.5017   17.0793 N.ar    1  UNL1       -0.2269
     13 C          66.4433   92.6274   16.3491 C.ar    1  UNL1        0.1406
     14 N          67.7769   93.1748   16.7635 N.ar    1  UNL1       -0.3374
     15 C          68.9236   93.1681   15.7965 C.ar    1  UNL1        0.0735
     16 C          68.7367   92.6140   14.4152 C.ar    1  UNL1        0.0186
     17 C          67.4030   92.0666   14.0008 C.ar    1  UNL1        0.0046
     18 C          66.2563   92.0733   14.9678 C.ar    1  UNL1        0.0370
     19 H          67.8996   93.5384   17.6701 H       1  UNL1        0.1674
     20 C          60.9245   86.4740   10.7283 C.3     1  UNL1        0.1117
     21 C          63.2200   83.2715   11.2030 C.ar    1  UNL1        0.1216
     22 C          63.9112   83.2185    9.8729 C.ar    1  UNL1        0.0199
     23 C          63.6069   84.2506    8.8278 C.ar    1  UNL1        0.0011
     24 C          62.6113   85.3358    9.1129 C.ar    1  UNL1       -0.0037
     25 C          61.9201   85.3888   10.4432 C.ar    1  UNL1       -0.0117
     26 C          62.2244   84.3566   11.4882 C.ar    1  UNL1        0.0161
     27 S          63.5243   82.2394   12.2481 S.O2    1  UNL1        0.0602
     28 O          63.8827   83.3266   13.2174 O.2     1  UNL1       -0.1530
     29 O          63.1658   81.1522   11.2788 O.2     1  UNL1       -0.1530
     30 N          63.8286   81.2073   13.2932 N.3     1  UNL1       -0.1794
     31 H          64.4040   80.4947   12.8444 H       1  UNL1        0.1488
     32 C          61.3497   81.1167   14.0658 C.3     1  UNL1        0.0203
     33 C          62.7090   80.4875   13.9847 C.3     1  UNL1        0.0915
@<TRIPOS>BOND
     1    32    33    1
     2    33    30    1
     3    30    27    1
     4    27    28    2
     5    27    29    2
     6    27    21    1
     7    21    22   ar
     8    22    23   ar
     9    23    24   ar
    10    24    25   ar
    11    25    20    1
    12    20     1    1
    13     1     2    2
    14     1     3   am
    15     3     5    1
    16     5     6   ar
    17     6     7   ar
    18     7    10    1
    19    10    11   ar
    20    11    12   ar
    21    12    13   ar
    22    13    14   ar
    23    14    15   ar
    24    15    16   ar
    25    16    17   ar
    26    17    18   ar
    27     7     8   ar
    28     8     9   ar
    29    25    26   ar
    30    26    21   ar
    31     9     5   ar
    32    18    10   ar
    33    18    13    1
    34    30    31    1
    35     3     4    1
    36    14    19    1
