@<TRIPOS>MOLECULE
*****
 30 34 0 0 0
SMALL
GASTEIGER

@<TRIPOS>ATOM
      1 N          63.0774   85.2037   12.6142 N.pl3   1  UNL1       -0.2781
      2 C          62.5151   86.2543   11.7032 C.3     1  UNL1        0.0954
      3 C          63.0132   87.5892   12.1722 C.3     1  UNL1        0.0430
      4 C          62.9735   89.0636   11.8990 C.3     1  UNL1        0.0955
      5 N          63.8191   89.7492   12.9309 N.am    1  UNL1       -0.2759
      6 C          64.0601   91.2261   13.0338 C.2     1  UNL1        0.2527
      7 O          63.4270   92.1600   12.0453 O.2     1  UNL1       -0.2698
      8 C          64.3814   88.6985   13.8419 C.3     1  UNL1        0.0955
      9 C          63.8833   87.3636   13.3730 C.3     1  UNL1        0.0430
     10 C          63.9230   85.8892   13.6462 C.3     1  UNL1        0.0954
     11 C          63.5056   80.7471    9.9768 C.3     1  UNL1        0.0522
     12 C          63.0505   81.4984   11.1927 C.ar    1  UNL1        0.0634
     13 C          62.3544   80.7728   12.3057 C.ar    1  UNL1        0.0296
     14 C          61.8992   81.5241   13.5216 C.ar    1  UNL1        0.0634
     15 C          61.2031   80.7985   14.6346 C.3     1  UNL1        0.0522
     16 N          62.1402   83.0011   13.6244 N.ar    1  UNL1       -0.2180
     17 C          62.8364   83.7267   12.5114 C.ar    1  UNL1        0.2195
     18 N          63.2915   82.9754   11.2955 N.ar    1  UNL1       -0.2180
     19 C          64.9341   91.7691   14.1252 C.ar    1  UNL1        0.1003
     20 C          64.5583   91.5582   15.5619 C.ar    1  UNL1        0.1460
     21 F          63.3085   90.8041   15.9073 F       1  UNL1       -0.2040
     22 C          65.4324   92.1013   16.6533 C.ar    1  UNL1        0.0299
     23 C          66.6822   92.8553   16.3080 C.ar    1  UNL1        0.0039
     24 C          67.0580   93.0663   14.8712 C.ar    1  UNL1        0.0212
     25 C          66.1840   92.5233   13.7799 C.ar    1  UNL1        0.1094
     26 N          66.5598   92.7342   12.3431 N.ar    1  UNL1       -0.1476
     27 N          67.6183   91.9849   11.5894 N.ar    1  UNL1       -0.1447
     28 C          67.6558   92.5192   10.1883 C.ar    1  UNL1        0.1446
     29 C          66.6204   93.5987   10.0761 C.ar    1  UNL1        0.1446
     30 N          65.9431   93.7316   11.4078 N.ar    1  UNL1       -0.1447
@<TRIPOS>BOND
     1    11    12    1
     2    12    13   ar
     3    13    14   ar
     4    14    15    1
     5    14    16   ar
     6    16    17   ar
     7    17     1    1
     8     1     2    1
     9     3     2    1
    10     3     4    1
    11     4     5    1
    12     5     6   am
    13     6     7    2
    14     6    19    1
    15    19    20   ar
    16    20    21    1
    17    20    22   ar
    18    22    23   ar
    19    23    24   ar
    20    24    25   ar
    21    25    26    1
    22    26    27   ar
    23    27    28   ar
    24    28    29   ar
    25    29    30   ar
    26     5     8    1
    27     9     8    1
    28     9    10    1
    29    17    18   ar
    30    18    12   ar
    31    10     1    1
    32     9     3    1
    33    25    19   ar
    34    30    26   ar
@<TRIPOS>MOLECULE
*****
 30 34 0 0 0
SMALL
GASTEIGER

@<TRIPOS>ATOM
      1 N          64.9502   91.5200   12.8379 N.pl3   1  UNL1       -0.2781
      2 C          64.7875   90.2491   13.6179 C.3     1  UNL1        0.0954
      3 C          63.9233   89.3210   12.8168 C.3     1  UNL1        0.0430
      4 C          63.2886   87.9620   12.8037 C.3     1  UNL1        0.0955
      5 N          62.5250   87.8192   11.5205 N.am    1  UNL1       -0.2759
      6 C          61.7370   86.6169   11.0925 C.2     1  UNL1        0.2527
      7 O          61.6646   85.4117   11.9828 O.2     1  UNL1       -0.2698
      8 C          62.6877   89.0902   10.7405 C.3     1  UNL1        0.0955
      9 C          63.5519   90.0183   11.5417 C.3     1  UNL1        0.0430
     10 C          64.1866   91.3773   11.5547 C.3     1  UNL1        0.0954
     11 C          66.3253   96.4817   12.1378 C.3     1  UNL1        0.0522
     12 C          66.4257   95.2033   12.9159 C.ar    1  UNL1        0.0634
     13 C          67.3142   95.1273   14.1221 C.ar    1  UNL1        0.0296
     14 C          67.4146   93.8489   14.9002 C.ar    1  UNL1        0.0634
     15 C          68.3031   93.7728   16.1064 C.3     1  UNL1        0.0522
     16 N          66.6266   92.6464   14.4721 N.ar    1  UNL1       -0.2180
     17 C          65.7382   92.7224   13.2659 C.ar    1  UNL1        0.2195
     18 N          65.6377   94.0008   12.4878 N.ar    1  UNL1       -0.2180
     19 C          61.0214   86.6195    9.7742 C.ar    1  UNL1        0.1003
     20 C          61.3713   85.6022    8.7289 C.ar    1  UNL1        0.1460
     21 F          62.4368   84.5823    9.0019 F       1  UNL1       -0.2040
     22 C          60.6557   85.6048    7.4106 C.ar    1  UNL1        0.0299
     23 C          59.5902   86.6246    7.1376 C.ar    1  UNL1        0.0039
     24 C          59.2403   87.6420    8.1829 C.ar    1  UNL1        0.0212
     25 C          59.9559   87.6394    9.5011 C.ar    1  UNL1        0.1094
     26 N          59.6060   88.6567   10.5464 N.ar    1  UNL1       -0.1476
     27 N          59.1817   88.3635   11.9550 N.ar    1  UNL1       -0.1447
     28 C          58.9324   89.6714   12.6458 C.ar    1  UNL1        0.1446
     29 C          59.2027   90.7729   11.6642 C.ar    1  UNL1        0.1446
     30 N          59.6190   90.1458   10.3668 N.ar    1  UNL1       -0.1447
@<TRIPOS>BOND
     1    11    12    1
     2    12    13   ar
     3    13    14   ar
     4    14    15    1
     5    14    16   ar
     6    16    17   ar
     7    17     1    1
     8     1     2    1
     9     3     2    1
    10     3     4    1
    11     4     5    1
    12     5     6   am
    13     6     7    2
    14     6    19    1
    15    19    20   ar
    16    20    21    1
    17    20    22   ar
    18    22    23   ar
    19    23    24   ar
    20    24    25   ar
    21    25    26    1
    22    26    27   ar
    23    27    28   ar
    24    28    29   ar
    25    29    30   ar
    26     5     8    1
    27     9     8    1
    28     9    10    1
    29    17    18   ar
    30    18    12   ar
    31    10     1    1
    32     9     3    1
    33    25    19   ar
    34    30    26   ar
@<TRIPOS>MOLECULE
*****
 30 34 0 0 0
SMALL
GASTEIGER

@<TRIPOS>ATOM
      1 N          64.9509   91.5204   12.8401 N.pl3   1  UNL1       -0.2781
      2 C          64.7872   90.2500   13.6206 C.3     1  UNL1        0.0954
      3 C          63.9232   89.3218   12.8193 C.3     1  UNL1        0.0430
      4 C          63.2881   87.9630   12.8064 C.3     1  UNL1        0.0955
      5 N          62.5252   87.8200   11.5228 N.am    1  UNL1       -0.2759
      6 C          61.7371   86.6177   11.0948 C.2     1  UNL1        0.2527
      7 O          61.6637   85.4130   11.9855 O.2     1  UNL1       -0.2698
      8 C          62.6890   89.0905   10.7423 C.3     1  UNL1        0.0955
      9 C          63.5530   90.0186   11.5436 C.3     1  UNL1        0.0430
     10 C          64.1881   91.3775   11.5565 C.3     1  UNL1        0.0954
     11 C          68.3043   93.7730   16.1082 C.3     1  UNL1        0.0522
     12 C          67.4157   93.8491   14.9021 C.ar    1  UNL1        0.0634
     13 C          67.3153   95.1276   14.1240 C.ar    1  UNL1        0.0296
     14 C          66.4268   95.2037   12.9180 C.ar    1  UNL1        0.0634
     15 C          66.3263   96.4821   12.1398 C.3     1  UNL1        0.0522
     16 N          65.6386   94.0012   12.4900 N.ar    1  UNL1       -0.2180
     17 C          65.7391   92.7228   13.2681 C.ar    1  UNL1        0.2195
     18 N          66.6276   92.6467   14.4742 N.ar    1  UNL1       -0.2180
     19 C          61.0224   86.6200    9.7760 C.ar    1  UNL1        0.1003
     20 C          61.3740   85.6033    8.7306 C.ar    1  UNL1        0.1460
     21 F          62.4404   84.5844    9.0040 F       1  UNL1       -0.2040
     22 C          60.6592   85.6056    7.4118 C.ar    1  UNL1        0.0299
     23 C          59.5929   86.6244    7.1384 C.ar    1  UNL1        0.0039
     24 C          59.2413   87.6412    8.1838 C.ar    1  UNL1        0.0212
     25 C          59.9560   87.6389    9.5025 C.ar    1  UNL1        0.1094
     26 N          59.6044   88.6555   10.5479 N.ar    1  UNL1       -0.1476
     27 N          59.6165   90.1447   10.3688 N.ar    1  UNL1       -0.1447
     28 C          59.1985   90.7710   11.6661 C.ar    1  UNL1        0.1446
     29 C          58.9281   89.6689   12.6470 C.ar    1  UNL1        0.1446
     30 N          59.1790   88.3615   11.9559 N.ar    1  UNL1       -0.1447
@<TRIPOS>BOND
     1    11    12    1
     2    12    13   ar
     3    13    14   ar
     4    14    15    1
     5    14    16   ar
     6    16    17   ar
     7    17     1    1
     8     1     2    1
     9     3     2    1
    10     3     4    1
    11     4     5    1
    12     5     6   am
    13     6     7    2
    14     6    19    1
    15    19    20   ar
    16    20    21    1
    17    20    22   ar
    18    22    23   ar
    19    23    24   ar
    20    24    25   ar
    21    25    26    1
    22    26    27   ar
    23    27    28   ar
    24    28    29   ar
    25    29    30   ar
    26     5     8    1
    27     9     8    1
    28     9    10    1
    29    17    18   ar
    30    18    12   ar
    31    10     1    1
    32     9     3    1
    33    25    19   ar
    34    30    26   ar
