@<TRIPOS>MOLECULE
*****
 40 45 0 0 0
SMALL
GASTEIGER

@<TRIPOS>ATOM
      1 C          58.8748   89.5499    6.7612 C.ar    1  UNL1        0.2400
      2 N          58.9870   88.9105    8.1135 N.ar    1  UNL1       -0.2090
      3 C          60.0731   89.3361    9.0565 C.ar    1  UNL1        0.1021
      4 C          61.2114   90.3716    8.9621 C.ar    1  UNL1        0.0207
      5 C          60.3610   90.3083    7.7281 C.ar    1  UNL1        0.0221
      6 C          59.8488   90.6148    6.3520 C.ar    1  UNL1        0.1178
      7 N          59.7366   91.2541    4.9997 N.pl3   1  UNL1       -0.2104
      8 S          60.0380   92.1493    3.8344 S.O2    1  UNL1        0.0737
      9 O          59.4040   92.3345    2.4877 O.2     1  UNL1       -0.1499
     10 O          58.8571   91.2531    3.6054 O.2     1  UNL1       -0.1499
     11 C          60.7166   93.1922    2.9966 C.ar    1  UNL1        0.1253
     12 C          60.2044   93.4987    1.6205 C.ar    1  UNL1        0.0202
     13 C          60.8829   94.5415    0.7827 C.ar    1  UNL1        0.0015
     14 C          62.0737   95.2779    1.3210 C.ar    1  UNL1        0.0046
     15 C          62.5859   94.9715    2.6971 C.ar    1  UNL1        0.0547
     16 C          61.9073   93.9286    3.5349 C.ar    1  UNL1        0.0247
     17 C          64.0331   95.9519    3.1944 C.2     1  UNL1        0.2461
     18 O          64.3345   96.8470    2.0291 O.2     1  UNL1       -0.2701
     19 N          65.1191   96.3774    4.1374 N.am    1  UNL1       -0.2969
     20 C          65.9696   96.4407    5.3714 C.3     1  UNL1        0.1181
     21 C          66.4818   96.1342    6.7476 C.ar    1  UNL1        0.0167
     22 C          67.6497   96.6855    7.5895 C.ar    1  UNL1        0.0962
     23 N          68.1619   96.3790    8.9657 N.ar    1  UNL1       -0.2425
     24 C          67.4834   95.3361    9.8034 C.ar    1  UNL1        0.1003
     25 C          66.2926   94.5997    9.2651 C.ar    1  UNL1        0.0367
     26 C          66.5940   95.4949    8.0998 C.ar    1  UNL1        0.0020
     27 C          65.6140   93.5569   10.1029 C.ar    1  UNL1        0.0859
     28 N          66.7002   93.9824   11.0460 N.ar    1  UNL1       -0.2239
     29 C          66.8123   93.3430   12.3982 C.ar    1  UNL1        0.1988
     30 N          65.8384   92.2781   12.8075 N.ar    1  UNL1       -0.2240
     31 C          64.7522   91.8526   11.8644 C.ar    1  UNL1        0.0845
     32 C          63.5847   90.6828   12.1590 C.ar    1  UNL1        0.0192
     33 C          62.4734   90.2050   11.2720 C.ar    1  UNL1        0.0016
     34 C          62.2975   90.7972    9.9051 C.ar    1  UNL1        0.0017
     35 C          63.4883   91.5335   10.4434 C.ar    1  UNL1        0.0030
     36 C          64.6400   92.4920   10.5121 C.ar    1  UNL1        0.0354
     37 H          58.9550   90.7708    4.6464 H       1  UNL1        0.1739
     38 H          65.5645   97.0618    3.5876 H       1  UNL1        0.1501
     39 C          56.6219   90.0309    5.5600 C.3     1  UNL1        0.2543
     40 O          57.7887   89.1244    5.8182 O.3     1  UNL1       -0.4553
@<TRIPOS>BOND
     1    39    40    1
     2    40     1    1
     3     1     2   ar
     4     2     3   ar
     5     3     4   ar
     6     4     5   ar
     7     5     6   ar
     8     6     7    1
     9     7     8    1
    10     8     9    2
    11     8    10    2
    12     8    11    1
    13    11    12   ar
    14    12    13   ar
    15    13    14   ar
    16    14    15   ar
    17    15    16   ar
    18    15    17    1
    19    17    18    2
    20    17    19   am
    21    19    20    1
    22    20    21    1
    23    21    22   ar
    24    22    23   ar
    25    23    24   ar
    26    24    25   ar
    27    25    26   ar
    28    25    27    1
    29    27    28   ar
    30    28    29   ar
    31    29    30   ar
    32    30    31   ar
    33    31    32   ar
    34    32    33   ar
    35    33    34   ar
    36    34    35   ar
    37    35    36   ar
    38     6     1   ar
    39    16    11   ar
    40    26    21   ar
    41    36    27   ar
    42    34     4    1
    43    36    31   ar
    44     7    37    1
    45    19    38    1
@<TRIPOS>MOLECULE
*****
 40 45 0 0 0
SMALL
GASTEIGER

@<TRIPOS>ATOM
      1 C          59.4245   88.8181    8.2321 C.ar    1  UNL1        0.2400
      2 N          59.7600   88.4279    9.6411 N.ar    1  UNL1       -0.2090
      3 C          60.8821   89.1139   10.3623 C.ar    1  UNL1        0.1021
      4 C          61.8688   90.2307    9.9667 C.ar    1  UNL1        0.0207
      5 C          60.9033   89.8756    8.8749 C.ar    1  UNL1        0.0221
      6 C          60.2112   89.8943    7.5444 C.ar    1  UNL1        0.1178
      7 N          59.8757   90.2845    6.1354 N.pl3   1  UNL1       -0.2104
      8 S          59.9374   90.9991    4.8180 S.O2    1  UNL1        0.0737
      9 O          59.1430   90.8913    3.5502 O.2     1  UNL1       -0.1499
     10 O          58.8567   89.9608    4.8806 O.2     1  UNL1       -0.1499
     11 C          60.3888   91.9520    3.7511 C.ar    1  UNL1        0.1253
     12 C          59.6966   91.9707    2.4205 C.ar    1  UNL1        0.0202
     13 C          60.1480   92.9236    1.3536 C.ar    1  UNL1        0.0015
     14 C          61.2916   93.8578    1.6174 C.ar    1  UNL1        0.0046
     15 C          61.9838   93.8391    2.9480 C.ar    1  UNL1        0.0547
     16 C          61.5324   92.8862    4.0148 C.ar    1  UNL1        0.0247
     17 C          63.3462   95.0321    3.1015 C.2     1  UNL1        0.2461
     18 O          63.4079   95.7467    1.7841 O.2     1  UNL1       -0.2701
     19 N          64.4683   95.7180    3.8228 N.am    1  UNL1       -0.2969
     20 C          65.4337   96.0731    4.9145 C.3     1  UNL1        0.1181
     21 C          66.1259   96.0543    6.2452 C.ar    1  UNL1        0.0167
     22 C          67.3025   96.8552    6.8377 C.ar    1  UNL1        0.0962
     23 N          67.9947   96.8365    8.1684 N.ar    1  UNL1       -0.2425
     24 C          67.5432   95.8836    9.2352 C.ar    1  UNL1        0.1003
     25 C          66.3997   94.9495    8.9715 C.ar    1  UNL1        0.0367
     26 C          66.4614   95.6641    7.6541 C.ar    1  UNL1        0.0020
     27 C          65.9482   93.9966   10.0384 C.ar    1  UNL1        0.0859
     28 N          67.0705   94.6826   10.7597 N.ar    1  UNL1       -0.2239
     29 C          67.4059   94.2924   12.1686 C.ar    1  UNL1        0.1988
     30 N          66.6192   93.2162   12.8564 N.ar    1  UNL1       -0.2240
     31 C          65.4970   92.5302   12.1351 C.ar    1  UNL1        0.0845
     32 C          64.5197   91.3122   12.7511 C.ar    1  UNL1        0.0192
     33 C          63.3851   90.5817   12.0960 C.ar    1  UNL1        0.0016
     34 C          62.9909   90.9166   10.6880 C.ar    1  UNL1        0.0017
     35 C          64.1345   91.8508   10.9517 C.ar    1  UNL1        0.0030
     36 C          65.1615   92.9204   10.7261 C.ar    1  UNL1        0.0354
     37 H          59.1251   89.6714    5.9623 H       1  UNL1        0.1739
     38 H          64.7646   96.3434    3.1226 H       1  UNL1        0.1501
     39 C          58.2415   86.6340    7.4706 C.3     1  UNL1        0.2543
     40 O          58.3023   88.1321    7.5109 O.3     1  UNL1       -0.4553
@<TRIPOS>BOND
     1    39    40    1
     2    40     1    1
     3     1     2   ar
     4     2     3   ar
     5     3     4   ar
     6     4     5   ar
     7     5     6   ar
     8     6     7    1
     9     7     8    1
    10     8     9    2
    11     8    10    2
    12     8    11    1
    13    11    12   ar
    14    12    13   ar
    15    13    14   ar
    16    14    15   ar
    17    15    16   ar
    18    15    17    1
    19    17    18    2
    20    17    19   am
    21    19    20    1
    22    20    21    1
    23    21    22   ar
    24    22    23   ar
    25    23    24   ar
    26    24    25   ar
    27    25    26   ar
    28    25    27    1
    29    27    28   ar
    30    28    29   ar
    31    29    30   ar
    32    30    31   ar
    33    31    32   ar
    34    32    33   ar
    35    33    34   ar
    36    34    35   ar
    37    35    36   ar
    38     6     1   ar
    39    16    11   ar
    40    26    21   ar
    41    36    27   ar
    42    34     4    1
    43    36    31   ar
    44     7    37    1
    45    19    38    1
@<TRIPOS>MOLECULE
*****
 40 45 0 0 0
SMALL
GASTEIGER

@<TRIPOS>ATOM
      1 C          66.6055   93.7183   11.4168 C.ar    1  UNL1        0.2400
      2 N          67.5743   94.7447   10.9088 N.ar    1  UNL1       -0.2090
      3 C          67.4758   95.2334    9.4941 C.ar    1  UNL1        0.1021
      4 C          66.5279   94.9037    8.3237 C.ar    1  UNL1        0.0207
      5 C          66.2184   94.1356    9.5744 C.ar    1  UNL1        0.0221
      6 C          65.5383   93.1808   10.5102 C.ar    1  UNL1        0.1178
      7 N          64.5695   92.1544   11.0183 N.pl3   1  UNL1       -0.2104
      8 S          63.4290   91.1804   11.0373 S.O2    1  UNL1        0.0737
      9 O          62.8653   90.2758   12.0928 O.2     1  UNL1       -0.1499
     10 O          64.1572   91.2681   12.3457 O.2     1  UNL1       -0.1499
     11 C          62.2542   90.3760   10.5650 C.ar    1  UNL1        0.1253
     12 C          61.5741   89.4212   11.5008 C.ar    1  UNL1        0.0202
     13 C          60.3994   88.6169   11.0285 C.ar    1  UNL1        0.0015
     14 C          59.9048   88.7674    9.6204 C.ar    1  UNL1        0.0046
     15 C          60.5849   89.7222    8.6846 C.ar    1  UNL1        0.0547
     16 C          61.7596   90.5265    9.1569 C.ar    1  UNL1        0.0247
     17 C          59.8613   89.7830    7.0186 C.2     1  UNL1        0.2461
     18 O          58.7207   88.8090    7.0377 O.2     1  UNL1       -0.2701
     19 N          59.7628   90.2719    5.6040 N.am    1  UNL1       -0.2969
     20 C          60.0723   91.0399    4.3533 C.3     1  UNL1        0.1181
     21 C          60.7524   91.9948    3.4174 C.ar    1  UNL1        0.0167
     22 C          60.5122   92.3865    1.9458 C.ar    1  UNL1        0.0962
     23 N          61.1924   93.3414    1.0100 N.ar    1  UNL1       -0.2425
     24 C          62.3671   94.1457    1.4823 C.ar    1  UNL1        0.1003
     25 C          62.8617   93.9952    2.8903 C.ar    1  UNL1        0.0367
     26 C          61.7212   93.0211    2.9094 C.ar    1  UNL1        0.0020
     27 C          64.0364   94.7995    3.3626 C.ar    1  UNL1        0.0859
     28 N          63.9380   95.2883    1.9479 N.ar    1  UNL1       -0.2239
     29 C          64.9067   96.3146    1.4399 C.ar    1  UNL1        0.1988
     30 N          65.9740   96.8522    2.3464 N.ar    1  UNL1       -0.2240
     31 C          66.0725   96.3634    3.7612 C.ar    1  UNL1        0.0845
     32 C          67.1990   96.8554    4.9046 C.ar    1  UNL1        0.0192
     33 C          67.3605   96.4158    6.3296 C.ar    1  UNL1        0.0016
     34 C          66.4293   95.3925    6.9090 C.ar    1  UNL1        0.0017
     35 C          65.9347   95.5430    5.5009 C.ar    1  UNL1        0.0030
     36 C          65.1037   95.3370    4.2693 C.ar    1  UNL1        0.0354
     37 H          64.8941   92.0557   11.9424 H       1  UNL1        0.1739
     38 H          58.9918   89.7440    5.2940 H       1  UNL1        0.1501
     39 C          65.9394   93.9232   13.9197 C.3     1  UNL1        0.2543
     40 O          66.7041   93.2296   12.8315 O.3     1  UNL1       -0.4553
@<TRIPOS>BOND
     1    39    40    1
     2    40     1    1
     3     1     2   ar
     4     2     3   ar
     5     3     4   ar
     6     4     5   ar
     7     5     6   ar
     8     6     7    1
     9     7     8    1
    10     8     9    2
    11     8    10    2
    12     8    11    1
    13    11    12   ar
    14    12    13   ar
    15    13    14   ar
    16    14    15   ar
    17    15    16   ar
    18    15    17    1
    19    17    18    2
    20    17    19   am
    21    19    20    1
    22    20    21    1
    23    21    22   ar
    24    22    23   ar
    25    23    24   ar
    26    24    25   ar
    27    25    26   ar
    28    25    27    1
    29    27    28   ar
    30    28    29   ar
    31    29    30   ar
    32    30    31   ar
    33    31    32   ar
    34    32    33   ar
    35    33    34   ar
    36    34    35   ar
    37    35    36   ar
    38     6     1   ar
    39    16    11   ar
    40    26    21   ar
    41    36    27   ar
    42    34     4    1
    43    36    31   ar
    44     7    37    1
    45    19    38    1
@<TRIPOS>MOLECULE
*****
 40 45 0 0 0
SMALL
GASTEIGER

@<TRIPOS>ATOM
      1 C          44.9781   73.6551   17.9315 C.ar    1  UNL1        0.2400
      2 N          44.9958   72.8512   16.6652 N.ar    1  UNL1       -0.2090
      3 C          44.8562   73.5379   15.3389 C.ar    1  UNL1        0.1021
      4 C          44.6823   75.0124   14.9233 C.ar    1  UNL1        0.0207
      5 C          44.7789   74.8202   16.4078 C.ar    1  UNL1        0.0221
      6 C          44.8209   75.1456   17.8714 C.ar    1  UNL1        0.1178
      7 N          44.8033   75.9495   19.1377 N.pl3   1  UNL1       -0.2104
      8 S          44.7282   77.1348   20.0539 S.O2    1  UNL1        0.0737
      9 O          44.7893   77.2891   21.5447 O.2     1  UNL1       -0.1499
     10 O          44.9002   75.8332   20.7793 O.2     1  UNL1       -0.1499
     11 C          44.6045   78.5587   20.5095 C.ar    1  UNL1        0.1253
     12 C          44.6466   78.8841   21.9731 C.ar    1  UNL1        0.0202
     13 C          44.5229   80.3079   22.4286 C.ar    1  UNL1        0.0015
     14 C          44.3573   81.4062   21.4205 C.ar    1  UNL1        0.0046
     15 C          44.3153   81.0807   19.9569 C.ar    1  UNL1        0.0547
     16 C          44.4389   79.6570   19.5014 C.ar    1  UNL1        0.0247
     17 C          44.1099   82.5250   18.8730 C.2     1  UNL1        0.2461
     18 O          44.0348   83.7103   19.7892 O.2     1  UNL1       -0.2701
     19 N          43.9704   83.2116   17.5467 N.am    1  UNL1       -0.2969
     20 C          43.8738   83.4038   16.0623 C.3     1  UNL1        0.1181
     21 C          43.8317   83.0783   14.5986 C.ar    1  UNL1        0.0167
     22 C          43.6773   83.9367   13.3273 C.ar    1  UNL1        0.0962
     23 N          43.6352   83.6112   11.8636 N.ar    1  UNL1       -0.2425
     24 C          43.7589   82.1874   11.4080 C.ar    1  UNL1        0.1003
     25 C          43.9245   81.0891   12.4161 C.ar    1  UNL1        0.0367
     26 C          43.8494   82.2744   13.3323 C.ar    1  UNL1        0.0020
     27 C          44.0481   79.6653   11.9606 C.ar    1  UNL1        0.0859
     28 N          43.9086   80.3520   10.6342 N.ar    1  UNL1       -0.2239
     29 C          43.9262   79.5481    9.3680 C.ar    1  UNL1        0.1988
     30 N          44.0834   78.0576    9.4279 N.ar    1  UNL1       -0.2240
     31 C          44.2230   77.3709   10.7543 C.ar    1  UNL1        0.0845
     32 C          44.4064   75.7207   11.0026 C.ar    1  UNL1        0.0192
     33 C          44.5511   74.9638   12.2896 C.ar    1  UNL1        0.0016
     34 C          44.5428   75.6990   13.5970 C.ar    1  UNL1        0.0017
     35 C          44.3771   76.7973   12.5889 C.ar    1  UNL1        0.0030
     36 C          44.2053   78.1748   12.0206 C.ar    1  UNL1        0.0354
     37 H          44.9120   75.2286   19.7994 H       1  UNL1        0.1739
     38 H          43.8892   84.1461   17.8457 H       1  UNL1        0.1501
     39 C          44.1697   71.8695   19.6368 C.3     1  UNL1        0.2543
     40 O          45.1177   72.9684   19.2577 O.3     1  UNL1       -0.4553
@<TRIPOS>BOND
     1    39    40    1
     2    40     1    1
     3     1     2   ar
     4     2     3   ar
     5     3     4   ar
     6     4     5   ar
     7     5     6   ar
     8     6     7    1
     9     7     8    1
    10     8     9    2
    11     8    10    2
    12     8    11    1
    13    11    12   ar
    14    12    13   ar
    15    13    14   ar
    16    14    15   ar
    17    15    16   ar
    18    15    17    1
    19    17    18    2
    20    17    19   am
    21    19    20    1
    22    20    21    1
    23    21    22   ar
    24    22    23   ar
    25    23    24   ar
    26    24    25   ar
    27    25    26   ar
    28    25    27    1
    29    27    28   ar
    30    28    29   ar
    31    29    30   ar
    32    30    31   ar
    33    31    32   ar
    34    32    33   ar
    35    33    34   ar
    36    34    35   ar
    37    35    36   ar
    38     6     1   ar
    39    16    11   ar
    40    26    21   ar
    41    36    27   ar
    42    34     4    1
    43    36    31   ar
    44     7    37    1
    45    19    38    1
