@<TRIPOS>MOLECULE
*****
 33 37 0 0 0
SMALL
GASTEIGER

@<TRIPOS>ATOM
      1 O          62.8966   89.0131   11.2150 O.2     1  UNL1       -0.2666
      2 C          63.3164   88.1201   12.3448 C.ar    1  UNL1        0.2648
      3 C          62.8226   86.7050   12.4056 C.ar    1  UNL1        0.0611
      4 C          63.2424   85.8120   13.5354 C.ar    1  UNL1        0.0062
      5 C          64.1560   86.3341   14.6043 C.ar    1  UNL1        0.0192
      6 C          64.6498   87.7492   14.5435 C.ar    1  UNL1        0.0829
      7 N          64.2300   88.6422   13.4138 N.ar    1  UNL1       -0.2731
      8 C          64.7238   90.0573   13.3530 C.ar    1  UNL1        0.0670
      9 C          64.3137   90.9466   12.2168 C.ar    1  UNL1        0.0191
     10 C          64.8075   92.3616   12.1561 C.ar    1  UNL1        0.0203
     11 C          65.7115   92.8874   13.2315 C.ar    1  UNL1        0.0795
     12 C          66.1216   91.9981   14.3676 C.ar    1  UNL1        0.0396
     13 C          67.0159   92.7890   15.2757 C.ar    1  UNL1        0.1216
     14 N          67.1584   94.1671   14.7009 N.ar    1  UNL1       -0.1677
     15 N          66.3523   94.2280   13.4374 N.ar    1  UNL1       -0.2494
     16 C          65.6278   90.5830   14.4284 C.ar    1  UNL1        0.0207
     17 C          66.2115   95.4200   12.5379 C.3     1  UNL1        0.1447
     18 C          65.7611   95.2395   11.1186 C.3     1  UNL1        0.0988
     19 N          66.6981   94.6566   10.1027 N.3     1  UNL1       -0.2710
     20 C          67.3016   93.2840   10.1451 C.3     1  UNL1        0.0722
     21 C          68.1727   93.1231    8.9346 C.3     1  UNL1        0.0188
     22 C          68.1075   94.3961    8.1440 C.3     1  UNL1        0.0188
     23 C          67.1962   95.3439    8.8659 C.3     1  UNL1        0.0722
     24 C          62.7485   84.3969   13.5961 C.ar    1  UNL1        0.0002
     25 C          62.7084   83.5625   12.3503 C.ar    1  UNL1       -0.0001
     26 C          62.2146   82.1474   12.4111 C.ar    1  UNL1        0.0039
     27 C          61.7609   81.5668   13.7176 C.ar    1  UNL1        0.0714
     28 C          61.8011   82.4013   14.9634 C.ar    1  UNL1        0.0039
     29 C          62.2949   83.8163   14.9027 C.ar    1  UNL1       -0.0001
     30 C          61.2671   80.1517   13.7784 C.3     1  UNL1        0.4186
     31 F          60.7732   78.7367   13.8391 F       1  UNL1       -0.1659
     32 F          62.5641   79.6741   13.1957 F       1  UNL1       -0.1659
     33 F          59.9701   80.6294   14.3611 F       1  UNL1       -0.1659
@<TRIPOS>BOND
     1     1     2    2
     2     2     3   ar
     3     3     4   ar
     4     4    24    1
     5    24    25   ar
     6    25    26   ar
     7    26    27   ar
     8    27    30    1
     9    30    31    1
    10    30    32    1
    11    30    33    1
    12    27    28   ar
    13    28    29   ar
    14     4     5   ar
    15     5     6   ar
    16     6     7   ar
    17     7     8    1
    18     8     9   ar
    19     9    10   ar
    20    10    11   ar
    21    11    12   ar
    22    12    13   ar
    23    13    14   ar
    24    14    15   ar
    25    15    17    1
    26    17    18    1
    27    18    19    1
    28    19    20    1
    29    20    21    1
    30    21    22    1
    31    22    23    1
    32    12    16   ar
    33     7     2   ar
    34    16     8   ar
    35    29    24   ar
    36    15    11   ar
    37    23    19    1
@<TRIPOS>MOLECULE
*****
 33 37 0 0 0
SMALL
GASTEIGER

@<TRIPOS>ATOM
      1 O          62.2464   92.0590    2.8286 O.2     1  UNL1       -0.2666
      2 C          61.0348   91.7479    3.6567 C.ar    1  UNL1        0.2648
      3 C          61.1623   90.8875    4.8787 C.ar    1  UNL1        0.0611
      4 C          59.9508   90.5764    5.7067 C.ar    1  UNL1        0.0062
      5 C          58.6118   91.1259    5.3126 C.ar    1  UNL1        0.0192
      6 C          58.4844   91.9863    4.0905 C.ar    1  UNL1        0.0829
      7 N          59.6959   92.2973    3.2626 N.ar    1  UNL1       -0.2731
      8 C          59.5684   93.1578    2.0405 C.ar    1  UNL1        0.0670
      9 C          60.3362   94.4428    1.9446 C.ar    1  UNL1        0.0191
     10 C          60.2088   95.3032    0.7226 C.ar    1  UNL1        0.0203
     11 C          59.3135   94.8786   -0.4036 C.ar    1  UNL1        0.0795
     12 C          58.5457   93.5936   -0.3077 C.ar    1  UNL1        0.0396
     13 C          57.7469   93.4359   -1.5675 C.ar    1  UNL1        0.1216
     14 N          58.0210   94.6234   -2.4419 N.ar    1  UNL1       -0.1677
     15 N          58.9892   95.5151   -1.7226 N.ar    1  UNL1       -0.2494
     16 C          58.6732   92.7332    0.9143 C.ar    1  UNL1        0.0207
     17 C          59.5370   96.8150   -2.2327 C.3     1  UNL1        0.1447
     18 C          60.8852   96.8547   -2.8891 C.3     1  UNL1        0.0988
     19 N          61.7621   95.6378   -2.8757 N.3     1  UNL1       -0.2710
     20 C          62.8692   95.3595   -1.9027 C.3     1  UNL1        0.0722
     21 C          63.4771   94.0353   -2.2587 C.3     1  UNL1        0.0188
     22 C          62.7457   93.4951   -3.4517 C.3     1  UNL1        0.0188
     23 C          61.6857   94.4856   -3.8330 C.3     1  UNL1        0.0722
     24 C          60.0783   89.7160    6.9287 C.ar    1  UNL1        0.0002
     25 C          60.8689   90.2003    8.1078 C.ar    1  UNL1       -0.0001
     26 C          60.9964   89.3399    9.3299 C.ar    1  UNL1        0.0039
     27 C          60.3333   87.9951    9.3728 C.ar    1  UNL1        0.0714
     28 C          59.5426   87.5108    8.1936 C.ar    1  UNL1        0.0039
     29 C          59.4152   88.3712    6.9716 C.ar    1  UNL1       -0.0001
     30 C          60.4607   87.1346   10.5948 C.3     1  UNL1        0.4186
     31 F          60.5882   86.2742   11.8168 F       1  UNL1       -0.1659
     32 F          59.7707   88.1887   11.4089 F       1  UNL1       -0.1659
     33 F          61.1508   86.0806    9.7806 F       1  UNL1       -0.1659
@<TRIPOS>BOND
     1     1     2    2
     2     2     3   ar
     3     3     4   ar
     4     4    24    1
     5    24    25   ar
     6    25    26   ar
     7    26    27   ar
     8    27    30    1
     9    30    31    1
    10    30    32    1
    11    30    33    1
    12    27    28   ar
    13    28    29   ar
    14     4     5   ar
    15     5     6   ar
    16     6     7   ar
    17     7     8    1
    18     8     9   ar
    19     9    10   ar
    20    10    11   ar
    21    11    12   ar
    22    12    13   ar
    23    13    14   ar
    24    14    15   ar
    25    15    17    1
    26    17    18    1
    27    18    19    1
    28    19    20    1
    29    20    21    1
    30    21    22    1
    31    22    23    1
    32    12    16   ar
    33     7     2   ar
    34    16     8   ar
    35    29    24   ar
    36    15    11   ar
    37    23    19    1
@<TRIPOS>MOLECULE
*****
 33 37 0 0 0
SMALL
GASTEIGER

@<TRIPOS>ATOM
      1 O          62.2554   91.8890    2.7619 O.2     1  UNL1       -0.2666
      2 C          61.0502   91.6406    3.6198 C.ar    1  UNL1        0.2648
      3 C          61.1695   90.7976    4.8548 C.ar    1  UNL1        0.0611
      4 C          59.9643   90.5492    5.7126 C.ar    1  UNL1        0.0062
      5 C          58.6399   91.1438    5.3355 C.ar    1  UNL1        0.0192
      6 C          58.5206   91.9868    4.1005 C.ar    1  UNL1        0.0829
      7 N          59.7257   92.2352    3.2427 N.ar    1  UNL1       -0.2731
      8 C          59.6065   93.0782    2.0077 C.ar    1  UNL1        0.0670
      9 C          58.6980   92.6512    0.8930 C.ar    1  UNL1        0.0191
     10 C          58.5788   93.4942   -0.3419 C.ar    1  UNL1        0.0203
     11 C          59.3680   94.7641   -0.4622 C.ar    1  UNL1        0.0795
     12 C          60.2764   95.1911    0.6524 C.ar    1  UNL1        0.0396
     13 C          60.9249   96.4832    0.2527 C.ar    1  UNL1        0.1216
     14 N          60.4173   96.8548   -1.1091 N.ar    1  UNL1       -0.1677
     15 N          59.4551   95.7924   -1.5509 N.ar    1  UNL1       -0.2494
     16 C          60.3956   94.3481    1.8873 C.ar    1  UNL1        0.0207
     17 C          58.7106   95.7633   -2.8528 C.3     1  UNL1        0.1447
     18 C          59.0094   94.6964   -3.8639 C.3     1  UNL1        0.0988
     19 N          57.9923   93.6332   -4.1554 N.3     1  UNL1       -0.2710
     20 C          57.9836   92.2431   -3.5918 C.3     1  UNL1        0.0722
     21 C          56.7911   91.5243   -4.1498 C.3     1  UNL1        0.0188
     22 C          56.0629   92.4700   -5.0581 C.3     1  UNL1        0.0188
     23 C          56.8052   93.7734   -5.0616 C.3     1  UNL1        0.0722
     24 C          60.0837   89.7062    6.9476 C.ar    1  UNL1        0.0002
     25 C          59.4283   88.3581    7.0016 C.ar    1  UNL1       -0.0001
     26 C          59.5476   87.5151    8.2366 C.ar    1  UNL1        0.0039
     27 C          60.3223   88.0203    9.4175 C.ar    1  UNL1        0.0714
     28 C          60.9777   89.3685    9.3635 C.ar    1  UNL1        0.0039
     29 C          60.8584   90.2114    8.1285 C.ar    1  UNL1       -0.0001
     30 C          60.4416   87.1773   10.6525 C.3     1  UNL1        0.4186
     31 F          60.5609   86.3343   11.8874 F       1  UNL1       -0.1659
     32 F          61.0740   86.0831    9.8445 F       1  UNL1       -0.1659
     33 F          59.8093   88.2715   11.4604 F       1  UNL1       -0.1659
@<TRIPOS>BOND
     1     1     2    2
     2     2     3   ar
     3     3     4   ar
     4     4    24    1
     5    24    25   ar
     6    25    26   ar
     7    26    27   ar
     8    27    30    1
     9    30    31    1
    10    30    32    1
    11    30    33    1
    12    27    28   ar
    13    28    29   ar
    14     4     5   ar
    15     5     6   ar
    16     6     7   ar
    17     7     8    1
    18     8     9   ar
    19     9    10   ar
    20    10    11   ar
    21    11    12   ar
    22    12    13   ar
    23    13    14   ar
    24    14    15   ar
    25    15    17    1
    26    17    18    1
    27    18    19    1
    28    19    20    1
    29    20    21    1
    30    21    22    1
    31    22    23    1
    32    12    16   ar
    33     7     2   ar
    34    16     8   ar
    35    29    24   ar
    36    15    11   ar
    37    23    19    1
