@<TRIPOS>MOLECULE
*****
 59 64 0 0 0
SMALL
GASTEIGER

@<TRIPOS>ATOM
      1 N          59.7248   90.1025    6.0708 N.3     1  UNL1       -0.2650
      2 C          59.4628   88.6679    5.7196 C.3     1  UNL1        0.0900
      3 C          59.4488   87.6229    6.7956 C.3     1  UNL1        0.0901
      4 N          59.6967   88.0124    8.2227 N.3     1  UNL1       -0.2621
      5 C          59.9587   89.4470    8.5740 C.3     1  UNL1        0.1510
      6 C          59.9727   90.4921    7.4980 C.3     1  UNL1        0.0980
      7 C          60.2066   89.8365   10.0011 C.2     1  UNL1        0.2386
      8 O          61.5238   90.4348   10.3973 O.2     1  UNL1       -0.2736
      9 N          59.1372   89.6278   11.0321 N.am    1  UNL1       -0.2961
     10 H          58.2726   89.2352   10.7721 H       1  UNL1        0.1497
     11 C          59.3851   90.0173   12.4593 C.3     1  UNL1        0.1939
     12 C          58.8506   89.1661   13.5727 C.3     1  UNL1        0.4154
     13 F          58.3161   88.3149   14.6861 F       1  UNL1       -0.1682
     14 F          60.0990   89.4185   14.3649 F       1  UNL1       -0.1682
     15 F          57.6022   88.9137   12.7804 F       1  UNL1       -0.1682
     16 C          61.2060   90.9143    4.7875 C.3     1  UNL1        0.0255
     17 C          59.7389   91.1475    4.9949 C.3     1  UNL1        0.1147
     18 C          58.2717   91.3807    5.2022 C.3     1  UNL1        0.0255
     19 C          59.7529   92.1926    3.9189 C.ar    1  UNL1        0.2185
     20 N          59.7997   93.6767    4.1318 N.ar    1  UNL1       -0.2094
     21 C          59.7984   94.3384    2.7856 C.ar    1  UNL1        0.1392
     22 C          59.7507   93.2632    1.7407 C.ar    1  UNL1        0.1683
     23 O          59.7226   91.9370    2.4411 O.2     1  UNL1       -0.4370
     24 C          59.7341   93.4767    0.2561 C.ar    1  UNL1        0.0659
     25 C          58.4486   93.8160   -0.4385 C.ar    1  UNL1        0.1028
     26 N          58.4320   94.0294   -1.9232 N.ar    1  UNL1       -0.2422
     27 C          59.7008   93.9036   -2.7132 C.ar    1  UNL1        0.0998
     28 C          60.9863   93.5643   -2.0186 C.ar    1  UNL1        0.0322
     29 C          61.0029   93.3508   -0.5340 C.ar    1  UNL1        0.0637
     30 CL         62.2884   93.0115    0.1607 Cl      1  UNL1       -0.0820
     31 C          59.6826   86.9674    9.2987 C.3     1  UNL1        0.1021
     32 C          60.9686   86.5252    9.9316 C.3     1  UNL1        0.1269
     33 O          61.9938   85.7949    9.1157 O.3     1  UNL1       -0.3830
     34 H          61.6702   85.6917    8.2071 H       1  UNL1        0.2104
     35 C          61.2295   86.8132   11.3803 C.3     1  UNL1        0.0401
     36 C          62.5809   86.5352   11.9688 C.3     1  UNL1        0.0833
     37 C          63.2730   87.5848   12.7870 C.2     1  UNL1        0.2226
     38 O          64.2581   87.1827   13.8444 O.2     1  UNL1       -0.2751
     39 N          62.9800   89.0363   12.5479 N.am    1  UNL1       -0.2999
     40 H          62.3334   89.3001   11.8539 H       1  UNL1        0.1498
     41 C          63.6721   90.0858   13.3661 C.3     1  UNL1        0.1278
     42 C          64.4215   91.1933   12.6865 C.ar    1  UNL1        0.0320
     43 C          64.4789   91.2513   11.1887 C.ar    1  UNL1        0.0004
     44 C          65.2283   92.3587   10.5091 C.ar    1  UNL1       -0.0001
     45 C          65.9204   93.4083   11.3273 C.ar    1  UNL1        0.0031
     46 C          65.8630   93.3504   12.8251 C.ar    1  UNL1        0.0366
     47 C          65.1136   92.2429   13.5047 C.ar    1  UNL1        0.1362
     48 O          65.0563   92.1849   15.0025 O.3     1  UNL1       -0.4730
     49 C          64.3069   91.0775   15.6820 C.3     1  UNL1        0.2364
     50 C          63.6148   90.0279   14.8638 C.3     1  UNL1        0.1762
     51 O          62.8653   88.9204   15.5435 O.3     1  UNL1       -0.3788
     52 H          62.9272   89.0308   16.5052 H       1  UNL1        0.2106
     53 C          63.2403   85.2076   11.7391 C.3     1  UNL1        0.0355
     54 C          62.8412   84.0194   12.5631 C.ar    1  UNL1       -0.0217
     55 C          62.6696   82.6789   11.9122 C.ar    1  UNL1       -0.0043
     56 C          62.2705   81.4907   12.7362 C.ar    1  UNL1       -0.0003
     57 C          62.0431   81.6430   14.2110 C.ar    1  UNL1       -0.0000
     58 C          62.2148   82.9835   14.8619 C.ar    1  UNL1       -0.0003
     59 C          62.6138   84.1717   14.0379 C.ar    1  UNL1       -0.0043
@<TRIPOS>BOND
     1    16    17    1
     2    17    18    1
     3    17    19    1
     4    19    20   ar
     5    20    21   ar
     6    21    22   ar
     7    22    24    1
     8    24    25   ar
     9    25    26   ar
    10    26    27   ar
    11    27    28   ar
    12    28    29   ar
    13    29    30    1
    14    22    23   ar
    15    17     1    1
    16     1     2    1
    17     2     3    1
    18     3     4    1
    19     4    31    1
    20    31    32    1
    21    32    33    1
    22    32    35    1
    23    36    35    1
    24    36    53    1
    25    53    54    1
    26    54    55   ar
    27    55    56   ar
    28    56    57   ar
    29    57    58   ar
    30    58    59   ar
    31    36    37    1
    32    37    38    2
    33    37    39   am
    34    41    39    1
    35    41    42    1
    36    42    43   ar
    37    43    44   ar
    38    44    45   ar
    39    45    46   ar
    40    46    47   ar
    41    47    48    1
    42    48    49    1
    43    49    50    1
    44    50    51    1
    45     4     5    1
    46     5     7    1
    47     7     8    2
    48     7     9   am
    49     9    11    1
    50    11    12    1
    51    12    13    1
    52    12    14    1
    53    12    15    1
    54     5     6    1
    55    23    19   ar
    56     6     1    1
    57    29    24   ar
    58    59    54   ar
    59    50    41    1
    60    47    42   ar
    61    33    34    1
    62    39    40    1
    63    51    52    1
    64     9    10    1
@<TRIPOS>MOLECULE
*****
 59 64 0 0 0
SMALL
GASTEIGER

@<TRIPOS>ATOM
      1 N          59.8381   90.3424    6.1614 N.3     1  UNL1       -0.2650
      2 C          59.4574   90.9536    7.4772 C.3     1  UNL1        0.0900
      3 C          59.3378   90.0908    8.6984 C.3     1  UNL1        0.0901
      4 N          59.5991   88.6168    8.6038 N.3     1  UNL1       -0.2621
      5 C          59.9799   88.0055    7.2879 C.3     1  UNL1        0.1510
      6 C          60.0994   88.8683    6.0667 C.3     1  UNL1        0.0980
      7 C          60.2411   86.5315    7.1933 C.2     1  UNL1        0.2386
      8 O          59.0927   85.5698    7.1142 O.2     1  UNL1       -0.2736
      9 N          61.6508   86.0191    7.1777 N.am    1  UNL1       -0.2961
     10 H          62.4046   86.6502    7.2296 H       1  UNL1        0.1497
     11 C          61.9121   84.5451    7.0831 C.3     1  UNL1        0.1939
     12 C          61.9969   83.8832    5.7398 C.3     1  UNL1        0.4154
     13 F          62.0819   83.2213    4.3963 F       1  UNL1       -0.1682
     14 F          63.3454   84.5023    5.5199 F       1  UNL1       -0.1682
     15 F          60.6485   83.2640    5.9596 F       1  UNL1       -0.1682
     16 C          58.4981   91.5386    5.0330 C.3     1  UNL1        0.0255
     17 C          59.9576   91.2052    4.9402 C.3     1  UNL1        0.1147
     18 C          61.4171   90.8717    4.8475 C.3     1  UNL1        0.0255
     19 C          60.0771   92.0680    3.7191 C.ar    1  UNL1        0.2185
     20 N          58.9398   92.6883    2.9630 N.ar    1  UNL1       -0.2094
     21 C          59.5147   93.4657    1.8162 C.ar    1  UNL1        0.1392
     22 C          61.0074   93.3257    1.8634 C.ar    1  UNL1        0.1683
     23 O          61.3551   92.4619    3.0395 O.2     1  UNL1       -0.4370
     24 C          61.9815   93.9415    0.9033 C.ar    1  UNL1        0.0659
     25 C          63.0156   94.9078    1.4003 C.ar    1  UNL1        0.1028
     26 N          63.9897   95.5236    0.4401 N.ar    1  UNL1       -0.2422
     27 C          63.9297   95.1730   -1.0171 C.ar    1  UNL1        0.0998
     28 C          62.8957   94.2067   -1.5141 C.ar    1  UNL1        0.0322
     29 C          61.9216   93.5910   -0.5540 C.ar    1  UNL1        0.0637
     30 CL         60.8875   92.6247   -1.0510 Cl      1  UNL1       -0.0820
     31 C          59.4796   87.7539    9.8250 C.3     1  UNL1        0.1021
     32 C          60.4400   87.9288   10.9638 C.3     1  UNL1        0.1269
     33 O          60.0762   88.8081   12.1233 O.3     1  UNL1       -0.3830
     34 H          59.1936   89.1839   11.9797 H       1  UNL1        0.2104
     35 C          61.7642   87.2245   10.9430 C.3     1  UNL1        0.0401
     36 C          62.4363   86.8530   12.2315 C.3     1  UNL1        0.0833
     37 C          63.2418   87.8741   12.9789 C.2     1  UNL1        0.2226
     38 O          64.3282   87.4337   13.9148 O.2     1  UNL1       -0.2751
     39 N          62.9608   89.3354   12.7904 N.am    1  UNL1       -0.2999
     40 H          62.2478   89.6243   12.1761 H       1  UNL1        0.1498
     41 C          63.7663   90.3565   13.5378 C.3     1  UNL1        0.1278
     42 C          64.5259   91.4091   12.7863 C.ar    1  UNL1        0.0320
     43 C          64.4801   91.4408   11.2873 C.ar    1  UNL1        0.0004
     44 C          65.2397   92.4934   10.5358 C.ar    1  UNL1       -0.0001
     45 C          66.0452   93.5145   11.2832 C.ar    1  UNL1        0.0031
     46 C          66.0910   93.4829   12.7822 C.ar    1  UNL1        0.0366
     47 C          65.3313   92.4302   13.5338 C.ar    1  UNL1        0.1362
     48 O          65.3772   92.3986   15.0327 O.3     1  UNL1       -0.4730
     49 C          64.6175   91.3460   15.7842 C.3     1  UNL1        0.2364
     50 C          63.8121   90.3249   15.0368 C.3     1  UNL1        0.1762
     51 O          63.0525   89.2722   15.7884 O.3     1  UNL1       -0.3788
     52 H          63.1884   89.3936   16.7411 H       1  UNL1        0.2106
     53 C          62.3030   85.4603   12.7726 C.3     1  UNL1        0.0355
     54 C          62.8155   84.2951   11.9790 C.ar    1  UNL1       -0.0217
     55 C          63.4411   84.5205   10.6344 C.ar    1  UNL1       -0.0043
     56 C          63.9535   83.3553    9.8408 C.ar    1  UNL1       -0.0003
     57 C          63.8404   81.9648   10.3918 C.ar    1  UNL1       -0.0000
     58 C          63.2148   81.7394   11.7363 C.ar    1  UNL1       -0.0003
     59 C          62.7023   82.9046   12.5299 C.ar    1  UNL1       -0.0043
@<TRIPOS>BOND
     1    16    17    1
     2    17    18    1
     3    17    19    1
     4    19    20   ar
     5    20    21   ar
     6    21    22   ar
     7    22    24    1
     8    24    25   ar
     9    25    26   ar
    10    26    27   ar
    11    27    28   ar
    12    28    29   ar
    13    29    30    1
    14    22    23   ar
    15    17     1    1
    16     1     2    1
    17     2     3    1
    18     3     4    1
    19     4    31    1
    20    31    32    1
    21    32    33    1
    22    32    35    1
    23    36    35    1
    24    36    53    1
    25    53    54    1
    26    54    55   ar
    27    55    56   ar
    28    56    57   ar
    29    57    58   ar
    30    58    59   ar
    31    36    37    1
    32    37    38    2
    33    37    39   am
    34    41    39    1
    35    41    42    1
    36    42    43   ar
    37    43    44   ar
    38    44    45   ar
    39    45    46   ar
    40    46    47   ar
    41    47    48    1
    42    48    49    1
    43    49    50    1
    44    50    51    1
    45     4     5    1
    46     5     7    1
    47     7     8    2
    48     7     9   am
    49     9    11    1
    50    11    12    1
    51    12    13    1
    52    12    14    1
    53    12    15    1
    54     5     6    1
    55    23    19   ar
    56     6     1    1
    57    29    24   ar
    58    59    54   ar
    59    50    41    1
    60    47    42   ar
    61    33    34    1
    62    39    40    1
    63    51    52    1
    64     9    10    1
@<TRIPOS>MOLECULE
*****
 59 64 0 0 0
SMALL
GASTEIGER

@<TRIPOS>ATOM
      1 N          59.9915   89.5180    7.4718 N.3     1  UNL1       -0.2650
      2 C          59.7013   90.0745    8.8342 C.3     1  UNL1        0.0900
      3 C          59.9954   89.2565   10.0566 C.3     1  UNL1        0.0901
      4 N          60.5797   87.8821    9.9167 N.3     1  UNL1       -0.2621
      5 C          60.8699   87.3256    8.5543 C.3     1  UNL1        0.1510
      6 C          60.5758   88.1436    7.3318 C.3     1  UNL1        0.0980
      7 C          61.4542   85.9512    8.4144 C.2     1  UNL1        0.2386
      8 O          60.8583   84.9785    7.4404 O.2     1  UNL1       -0.2736
      9 N          62.6345   85.5495    9.2485 N.am    1  UNL1       -0.2961
     10 H          63.0256   86.1880    9.8878 H       1  UNL1        0.1497
     11 C          63.2188   84.1752    9.1086 C.3     1  UNL1        0.1939
     12 C          63.5855   83.3881   10.3317 C.3     1  UNL1        0.4154
     13 F          63.9522   82.6009   11.5548 F       1  UNL1       -0.1682
     14 F          64.8780   82.9860    9.6854 F       1  UNL1       -0.1682
     15 F          62.2930   83.7902   10.9780 F       1  UNL1       -0.1682
     16 C          61.1635   90.5992    6.0727 C.3     1  UNL1        0.0255
     17 C          59.6973   90.3360    6.2493 C.3     1  UNL1        0.1147
     18 C          58.2312   90.0727    6.4259 C.3     1  UNL1        0.0255
     19 C          59.4032   91.1539    5.0268 C.ar    1  UNL1        0.2185
     20 N          58.0408   91.5302    4.5245 N.ar    1  UNL1       -0.2094
     21 C          58.2154   92.3481    3.2793 C.ar    1  UNL1        0.1392
     22 C          59.6858   92.4772    3.0119 C.ar    1  UNL1        0.1683
     23 O          60.4199   91.7392    4.0920 O.2     1  UNL1       -0.4370
     24 C          60.3121   93.2149    1.8658 C.ar    1  UNL1        0.0659
     25 C          59.4590   94.0422    0.9505 C.ar    1  UNL1        0.1028
     26 N          60.0853   94.7799   -0.1956 N.ar    1  UNL1       -0.2422
     27 C          61.5647   94.6902   -0.4264 C.ar    1  UNL1        0.0998
     28 C          62.4178   93.8628    0.4889 C.ar    1  UNL1        0.0322
     29 C          61.7915   93.1252    1.6350 C.ar    1  UNL1        0.0637
     30 CL         62.6446   92.2978    2.5503 Cl      1  UNL1       -0.0820
     31 C          60.8738   87.0642   11.1392 C.3     1  UNL1        0.1021
     32 C          62.1049   87.3427   11.9496 C.3     1  UNL1        0.1269
     33 O          63.0551   86.2291   12.2769 O.3     1  UNL1       -0.3830
     34 H          62.7277   85.4011   11.8921 H       1  UNL1        0.2104
     35 C          62.3859   88.7347   12.4327 C.3     1  UNL1        0.0401
     36 C          63.5910   89.0042   13.2841 C.3     1  UNL1        0.0833
     37 C          64.1110   90.4039   13.4264 C.2     1  UNL1        0.2226
     38 O          63.4873   91.3383   14.4205 O.2     1  UNL1       -0.2751
     39 N          65.2545   90.8694   12.5746 N.am    1  UNL1       -0.2999
     40 H          65.6638   90.2562   11.9221 H       1  UNL1        0.1498
     41 C          65.7745   92.2692   12.7169 C.3     1  UNL1        0.1278
     42 C          66.6251   92.6371   13.8963 C.ar    1  UNL1        0.0320
     43 C          66.9557   91.6051   14.9336 C.ar    1  UNL1        0.0004
     44 C          67.8063   91.9730   16.1130 C.ar    1  UNL1       -0.0001
     45 C          68.3263   93.3728   16.2553 C.ar    1  UNL1        0.0031
     46 C          67.9957   94.4047   15.2181 C.ar    1  UNL1        0.0366
     47 C          67.1450   94.0369   14.0386 C.ar    1  UNL1        0.1362
     48 O          66.8144   95.0688   13.0014 O.3     1  UNL1       -0.4730
     49 C          65.9639   94.7009   11.8219 C.3     1  UNL1        0.2364
     50 C          65.4439   93.3011   11.6797 C.3     1  UNL1        0.1762
     51 O          64.5933   92.9333   10.5001 O.3     1  UNL1       -0.3788
     52 H          64.4766   93.7100    9.9309 H       1  UNL1        0.2106
     53 C          64.2763   87.8738   13.9933 C.3     1  UNL1        0.0355
     54 C          63.7856   87.4245   15.3376 C.ar    1  UNL1       -0.0217
     55 C          63.3196   88.4360   16.3425 C.ar    1  UNL1       -0.0043
     56 C          62.8289   87.9866   17.6868 C.ar    1  UNL1       -0.0003
     57 C          62.8042   86.5258   18.0263 C.ar    1  UNL1       -0.0000
     58 C          63.2702   85.5143   17.0215 C.ar    1  UNL1       -0.0003
     59 C          63.7610   85.9636   15.6771 C.ar    1  UNL1       -0.0043
@<TRIPOS>BOND
     1    16    17    1
     2    17    18    1
     3    17    19    1
     4    19    20   ar
     5    20    21   ar
     6    21    22   ar
     7    22    24    1
     8    24    25   ar
     9    25    26   ar
    10    26    27   ar
    11    27    28   ar
    12    28    29   ar
    13    29    30    1
    14    22    23   ar
    15    17     1    1
    16     1     2    1
    17     2     3    1
    18     3     4    1
    19     4    31    1
    20    31    32    1
    21    32    33    1
    22    32    35    1
    23    36    35    1
    24    36    53    1
    25    53    54    1
    26    54    55   ar
    27    55    56   ar
    28    56    57   ar
    29    57    58   ar
    30    58    59   ar
    31    36    37    1
    32    37    38    2
    33    37    39   am
    34    41    39    1
    35    41    42    1
    36    42    43   ar
    37    43    44   ar
    38    44    45   ar
    39    45    46   ar
    40    46    47   ar
    41    47    48    1
    42    48    49    1
    43    49    50    1
    44    50    51    1
    45     4     5    1
    46     5     7    1
    47     7     8    2
    48     7     9   am
    49     9    11    1
    50    11    12    1
    51    12    13    1
    52    12    14    1
    53    12    15    1
    54     5     6    1
    55    23    19   ar
    56     6     1    1
    57    29    24   ar
    58    59    54   ar
    59    50    41    1
    60    47    42   ar
    61    33    34    1
    62    39    40    1
    63    51    52    1
    64     9    10    1
@<TRIPOS>MOLECULE
*****
 59 64 0 0 0
SMALL
GASTEIGER

@<TRIPOS>ATOM
      1 N          59.6619   90.3934    6.2454 N.3     1  UNL1       -0.2650
      2 C          59.4329   90.9867    7.6039 C.3     1  UNL1        0.0900
      3 C          59.4465   90.1067    8.8186 C.3     1  UNL1        0.0901
      4 N          59.6893   88.6335    8.6748 N.3     1  UNL1       -0.2621
      5 C          59.9183   88.0402    7.3163 C.3     1  UNL1        0.1510
      6 C          59.9047   88.9201    6.1016 C.3     1  UNL1        0.0980
      7 C          60.1610   86.5670    7.1725 C.2     1  UNL1        0.2386
      8 O          59.0012   85.6255    7.0369 O.2     1  UNL1       -0.2736
      9 N          61.5636   86.0352    7.1642 N.am    1  UNL1       -0.2961
     10 H          62.3249   86.6531    7.2532 H       1  UNL1        0.1497
     11 C          61.8063   84.5620    7.0204 C.3     1  UNL1        0.1939
     12 C          61.9224   83.9508    5.6556 C.3     1  UNL1        0.4154
     13 F          62.0384   83.3395    4.2906 F       1  UNL1       -0.1682
     14 F          60.5536   83.3559    5.8056 F       1  UNL1       -0.1682
     15 F          63.2912   84.5456    5.5055 F       1  UNL1       -0.1682
     16 C          61.1283   91.0838    4.8768 C.3     1  UNL1        0.0255
     17 C          59.6483   91.2734    5.0307 C.3     1  UNL1        0.1147
     18 C          58.1683   91.4629    5.1847 C.3     1  UNL1        0.0255
     19 C          59.6346   92.1533    3.8160 C.ar    1  UNL1        0.2185
     20 N          59.9787   93.6129    3.7807 N.ar    1  UNL1       -0.2094
     21 C          59.8312   94.0899    2.3662 C.ar    1  UNL1        0.1392
     22 C          59.3960   92.9251    1.5273 C.ar    1  UNL1        0.1683
     23 O          59.2745   91.7282    2.4233 O.2     1  UNL1       -0.4370
     24 C          59.1291   92.9523    0.0515 C.ar    1  UNL1        0.0659
     25 C          57.7219   92.8530   -0.4582 C.ar    1  UNL1        0.1028
     26 N          57.4550   92.8802   -1.9340 N.ar    1  UNL1       -0.2422
     27 C          58.5954   93.0067   -2.9001 C.ar    1  UNL1        0.0998
     28 C          60.0027   93.1060   -2.3904 C.ar    1  UNL1        0.0322
     29 C          60.2695   93.0788   -0.9146 C.ar    1  UNL1        0.0637
     30 CL         61.6768   93.1781   -0.4050 Cl      1  UNL1       -0.0820
     31 C          59.7029   87.7535    9.8895 C.3     1  UNL1        0.1021
     32 C          60.6488   88.0454   11.0165 C.3     1  UNL1        0.1269
     33 O          60.2195   88.9362   12.1443 O.3     1  UNL1       -0.3830
     34 H          59.3099   89.2362   11.9911 H       1  UNL1        0.2104
     35 C          62.0241   87.4465   11.0155 C.3     1  UNL1        0.0401
     36 C          62.6831   87.0794   12.3120 C.3     1  UNL1        0.0833
     37 C          63.4375   88.1165   13.0899 C.2     1  UNL1        0.2226
     38 O          64.4676   87.6970   14.0964 O.2     1  UNL1       -0.2751
     39 N          63.1618   89.5731   12.8614 N.am    1  UNL1       -0.2999
     40 H          62.4857   89.8485   12.2009 H       1  UNL1        0.1498
     41 C          63.9162   90.6103   13.6394 C.3     1  UNL1        0.1278
     42 C          64.7460   91.6315   12.9193 C.ar    1  UNL1        0.0320
     43 C          64.8214   91.6157   11.4212 C.ar    1  UNL1        0.0004
     44 C          65.6511   92.6369   10.7012 C.ar    1  UNL1       -0.0001
     45 C          66.4055   93.6741   11.4791 C.ar    1  UNL1        0.0031
     46 C          66.3302   93.6900   12.9771 C.ar    1  UNL1        0.0366
     47 C          65.5004   92.6687   13.6972 C.ar    1  UNL1        0.1362
     48 O          65.4250   92.6846   15.1952 O.3     1  UNL1       -0.4730
     49 C          64.5952   91.6634   15.9153 C.3     1  UNL1        0.2364
     50 C          63.8408   90.6262   15.1374 C.3     1  UNL1        0.1762
     51 O          63.0111   89.6049   15.8575 O.3     1  UNL1       -0.3788
     52 H          63.0712   89.7555   16.8138 H       1  UNL1        0.2106
     53 C          62.5878   85.6750   12.8306 C.3     1  UNL1        0.0355
     54 C          63.1809   84.5435   12.0447 C.ar    1  UNL1       -0.0217
     55 C          63.1914   84.5959   10.5456 C.ar    1  UNL1       -0.0043
     56 C          63.7846   83.4643    9.7597 C.ar    1  UNL1       -0.0003
     57 C          64.3672   82.2802   10.4729 C.ar    1  UNL1       -0.0000
     58 C          64.3567   82.2278   11.9719 C.ar    1  UNL1       -0.0003
     59 C          63.7636   83.3594   12.7578 C.ar    1  UNL1       -0.0043
@<TRIPOS>BOND
     1    16    17    1
     2    17    18    1
     3    17    19    1
     4    19    20   ar
     5    20    21   ar
     6    21    22   ar
     7    22    24    1
     8    24    25   ar
     9    25    26   ar
    10    26    27   ar
    11    27    28   ar
    12    28    29   ar
    13    29    30    1
    14    22    23   ar
    15    17     1    1
    16     1     2    1
    17     2     3    1
    18     3     4    1
    19     4    31    1
    20    31    32    1
    21    32    33    1
    22    32    35    1
    23    36    35    1
    24    36    53    1
    25    53    54    1
    26    54    55   ar
    27    55    56   ar
    28    56    57   ar
    29    57    58   ar
    30    58    59   ar
    31    36    37    1
    32    37    38    2
    33    37    39   am
    34    41    39    1
    35    41    42    1
    36    42    43   ar
    37    43    44   ar
    38    44    45   ar
    39    45    46   ar
    40    46    47   ar
    41    47    48    1
    42    48    49    1
    43    49    50    1
    44    50    51    1
    45     4     5    1
    46     5     7    1
    47     7     8    2
    48     7     9   am
    49     9    11    1
    50    11    12    1
    51    12    13    1
    52    12    14    1
    53    12    15    1
    54     5     6    1
    55    23    19   ar
    56     6     1    1
    57    29    24   ar
    58    59    54   ar
    59    50    41    1
    60    47    42   ar
    61    33    34    1
    62    39    40    1
    63    51    52    1
    64     9    10    1
@<TRIPOS>MOLECULE
*****
 59 64 0 0 0
SMALL
GASTEIGER

@<TRIPOS>ATOM
      1 N          60.1344   89.0400    7.9314 N.3     1  UNL1       -0.2650
      2 C          59.7584   89.4694    9.3186 C.3     1  UNL1        0.0900
      3 C          60.1464   88.6251   10.4961 C.3     1  UNL1        0.0901
      4 N          60.9104   87.3514   10.2866 N.3     1  UNL1       -0.2621
      5 C          61.2865   86.9220    8.8994 C.3     1  UNL1        0.1510
      6 C          60.8985   87.7662    7.7218 C.3     1  UNL1        0.0980
      7 C          62.0505   85.6483    8.6899 C.2     1  UNL1        0.2386
      8 O          62.1021   85.0199    7.3288 O.2     1  UNL1       -0.2736
      9 N          62.7629   85.0028    9.8414 N.am    1  UNL1       -0.2961
     10 H          62.7289   85.4152   10.7348 H       1  UNL1        0.1497
     11 C          63.5269   83.7291    9.6319 C.3     1  UNL1        0.1939
     12 C          63.7959   82.8166   10.7915 C.3     1  UNL1        0.4154
     13 F          64.0649   81.9040   11.9512 F       1  UNL1       -0.1682
     14 F          62.5200   83.2649   11.4404 F       1  UNL1       -0.1682
     15 F          65.0718   82.3682   10.1427 F       1  UNL1       -0.1682
     16 C          58.4172   89.1917    6.6953 C.3     1  UNL1        0.0255
     17 C          59.7465   89.8843    6.7539 C.3     1  UNL1        0.1147
     18 C          61.0758   90.5768    6.8124 C.3     1  UNL1        0.0255
     19 C          59.3585   90.7285    5.5763 C.ar    1  UNL1        0.2185
     20 N          57.9666   91.1605    5.2215 N.ar    1  UNL1       -0.2094
     21 C          58.0421   91.9880    3.9727 C.ar    1  UNL1        0.1392
     22 C          59.4808   92.0675    3.5556 C.ar    1  UNL1        0.1683
     23 O          60.2944   91.2891    4.5467 O.2     1  UNL1       -0.4370
     24 C          60.0126   92.7972    2.3579 C.ar    1  UNL1        0.0659
     25 C          59.0682   93.4951    1.4245 C.ar    1  UNL1        0.1028
     26 N          59.6000   94.2248    0.2267 N.ar    1  UNL1       -0.2422
     27 C          61.0762   94.2566   -0.0377 C.ar    1  UNL1        0.0998
     28 C          62.0205   93.5586    0.8956 C.ar    1  UNL1        0.0322
     29 C          61.4887   92.8289    2.0934 C.ar    1  UNL1        0.0637
     30 CL         62.4331   92.1310    3.0267 Cl      1  UNL1       -0.0820
     31 C          61.2984   86.5072   11.4642 C.3     1  UNL1        0.1021
     32 C          62.5199   86.8513   12.2638 C.3     1  UNL1        0.1269
     33 O          63.2986   85.7669   12.9477 O.3     1  UNL1       -0.3830
     34 H          62.8805   84.9092   12.7729 H       1  UNL1        0.2104
     35 C          62.9627   88.2797   12.3795 C.3     1  UNL1        0.0401
     36 C          63.9509   88.6753   13.4363 C.3     1  UNL1        0.0833
     37 C          64.3458   90.1139   13.5930 C.2     1  UNL1        0.2226
     38 O          63.2975   91.1559   13.8486 O.2     1  UNL1       -0.2751
     39 N          65.7891   90.5105   13.4942 N.am    1  UNL1       -0.2999
     40 H          66.4771   89.8266   13.3265 H       1  UNL1        0.1498
     41 C          66.1840   91.9490   13.6510 C.3     1  UNL1        0.1278
     42 C          65.9731   92.9121   12.5205 C.ar    1  UNL1        0.0320
     43 C          65.3673   92.4367   11.2333 C.ar    1  UNL1        0.0004
     44 C          65.1564   93.3998   10.1028 C.ar    1  UNL1       -0.0001
     45 C          65.5513   94.8383   10.2596 C.ar    1  UNL1        0.0031
     46 C          66.1571   95.3138   11.5468 C.ar    1  UNL1        0.0366
     47 C          66.3680   94.3507   12.6773 C.ar    1  UNL1        0.1362
     48 O          66.9738   94.8262   13.9645 O.3     1  UNL1       -0.4730
     49 C          67.1847   93.8631   15.0949 C.3     1  UNL1        0.2364
     50 C          66.7898   92.4245   14.9382 C.3     1  UNL1        0.1762
     51 O          67.0007   91.4614   16.0687 O.3     1  UNL1       -0.3788
     52 H          67.3984   91.9276   16.8206 H       1  UNL1        0.2106
     53 C          64.5442   87.6323   14.3365 C.3     1  UNL1        0.0355
     54 C          63.8906   87.3142   15.6485 C.ar    1  UNL1       -0.0217
     55 C          63.7327   85.8866   16.0811 C.ar    1  UNL1       -0.0043
     56 C          63.0791   85.5684   17.3932 C.ar    1  UNL1       -0.0003
     57 C          62.5832   86.6778   18.2726 C.ar    1  UNL1       -0.0000
     58 C          62.7410   88.1053   17.8400 C.ar    1  UNL1       -0.0003
     59 C          63.3947   88.4236   16.5279 C.ar    1  UNL1       -0.0043
@<TRIPOS>BOND
     1    16    17    1
     2    17    18    1
     3    17    19    1
     4    19    20   ar
     5    20    21   ar
     6    21    22   ar
     7    22    24    1
     8    24    25   ar
     9    25    26   ar
    10    26    27   ar
    11    27    28   ar
    12    28    29   ar
    13    29    30    1
    14    22    23   ar
    15    17     1    1
    16     1     2    1
    17     2     3    1
    18     3     4    1
    19     4    31    1
    20    31    32    1
    21    32    33    1
    22    32    35    1
    23    36    35    1
    24    36    53    1
    25    53    54    1
    26    54    55   ar
    27    55    56   ar
    28    56    57   ar
    29    57    58   ar
    30    58    59   ar
    31    36    37    1
    32    37    38    2
    33    37    39   am
    34    41    39    1
    35    41    42    1
    36    42    43   ar
    37    43    44   ar
    38    44    45   ar
    39    45    46   ar
    40    46    47   ar
    41    47    48    1
    42    48    49    1
    43    49    50    1
    44    50    51    1
    45     4     5    1
    46     5     7    1
    47     7     8    2
    48     7     9   am
    49     9    11    1
    50    11    12    1
    51    12    13    1
    52    12    14    1
    53    12    15    1
    54     5     6    1
    55    23    19   ar
    56     6     1    1
    57    29    24   ar
    58    59    54   ar
    59    50    41    1
    60    47    42   ar
    61    33    34    1
    62    39    40    1
    63    51    52    1
    64     9    10    1
@<TRIPOS>MOLECULE
*****
 59 64 0 0 0
SMALL
GASTEIGER

@<TRIPOS>ATOM
      1 N          59.9198   90.4393    6.0734 N.3     1  UNL1       -0.2650
      2 C          59.6908   91.1476    7.3756 C.3     1  UNL1        0.0900
      3 C          59.6231   90.3649    8.6534 C.3     1  UNL1        0.0901
      4 N          59.7845   88.8738    8.6290 N.3     1  UNL1       -0.2621
      5 C          60.0135   88.1654    7.3267 C.3     1  UNL1        0.1510
      6 C          60.0812   88.9482    6.0490 C.3     1  UNL1        0.0980
      7 C          60.1749   86.6744    7.3023 C.2     1  UNL1        0.2386
      8 O          58.9654   85.7883    7.3451 O.2     1  UNL1       -0.2736
      9 N          61.5459   86.0693    7.2352 N.am    1  UNL1       -0.2961
     10 H          62.3398   86.6509    7.2071 H       1  UNL1        0.1497
     11 C          61.7073   84.5783    7.2108 C.3     1  UNL1        0.1939
     12 C          61.9061   83.8667    5.9054 C.3     1  UNL1        0.4154
     13 F          62.1051   83.1552    4.5999 F       1  UNL1       -0.1682
     14 F          63.3041   84.4045    5.8252 F       1  UNL1       -0.1682
     15 F          60.5082   83.3289    5.9856 F       1  UNL1       -0.1682
     16 C          61.4345   90.8556    4.6478 C.3     1  UNL1        0.0255
     17 C          59.9875   91.2221    4.7956 C.3     1  UNL1        0.1147
     18 C          58.5405   91.5885    4.9435 C.3     1  UNL1        0.0255
     19 C          60.0552   92.0048    3.5178 C.ar    1  UNL1        0.2185
     20 N          58.9426   92.8133    2.9191 N.ar    1  UNL1       -0.2094
     21 C          59.4471   93.4246    1.6457 C.ar    1  UNL1        0.1392
     22 C          60.8716   92.9940    1.4573 C.ar    1  UNL1        0.1683
     23 O          61.2475   92.1165    2.6144 O.2     1  UNL1       -0.4370
     24 C          61.7636   93.3741    0.3129 C.ar    1  UNL1        0.0659
     25 C          61.2473   93.3099   -1.0940 C.ar    1  UNL1        0.1028
     26 N          62.1393   93.6900   -2.2384 N.ar    1  UNL1       -0.2422
     27 C          63.5478   94.1343   -1.9760 C.ar    1  UNL1        0.0998
     28 C          64.0641   94.1985   -0.5691 C.ar    1  UNL1        0.0322
     29 C          63.1721   93.8184    0.5753 C.ar    1  UNL1        0.0637
     30 CL         63.6884   93.8826    1.9822 Cl      1  UNL1       -0.0820
     31 C          59.7168   88.0911    9.9068 C.3     1  UNL1        0.1021
     32 C          60.4290   88.5885   11.1296 C.3     1  UNL1        0.1269
     33 O          59.6941   88.6993   12.4325 O.3     1  UNL1       -0.3830
     34 H          58.7756   88.4121   12.3111 H       1  UNL1        0.2104
     35 C          61.8761   88.9750   11.0495 C.3     1  UNL1        0.0401
     36 C          62.7033   89.0473   12.2987 C.3     1  UNL1        0.0833
     37 C          63.2731   87.7942   12.8946 C.2     1  UNL1        0.2226
     38 O          64.4625   87.8704   13.8055 O.2     1  UNL1       -0.2751
     39 N          62.6537   86.4649   12.5795 N.am    1  UNL1       -0.2999
     40 H          61.8731   86.4149   11.9816 H       1  UNL1        0.1498
     41 C          63.2235   85.2118   13.1753 C.3     1  UNL1        0.1278
     42 C          63.5596   84.0470   12.2921 C.ar    1  UNL1        0.0320
     43 C          63.3259   84.1351   10.8130 C.ar    1  UNL1        0.0004
     44 C          63.6619   82.9703    9.9299 C.ar    1  UNL1       -0.0001
     45 C          64.2318   81.7171   10.5257 C.ar    1  UNL1        0.0031
     46 C          64.4655   81.6289   12.0047 C.ar    1  UNL1        0.0366
     47 C          64.1294   82.7939   12.8880 C.ar    1  UNL1        0.1362
     48 O          64.3632   82.7056   14.3670 O.3     1  UNL1       -0.4730
     49 C          64.0271   83.8705   15.2502 C.3     1  UNL1        0.2364
     50 C          63.4573   85.1236   14.6543 C.3     1  UNL1        0.1762
     51 O          63.1212   86.2885   15.5376 O.3     1  UNL1       -0.3788
     52 H          63.3316   86.0675   16.4583 H       1  UNL1        0.2106
     53 C          62.9607   90.3728   12.9521 C.3     1  UNL1        0.0355
     54 C          64.1487   91.1923   12.5435 C.ar    1  UNL1       -0.0217
     55 C          65.2429   91.4712   13.5309 C.ar    1  UNL1       -0.0043
     56 C          66.4309   92.2907   13.1223 C.ar    1  UNL1       -0.0003
     57 C          66.5248   92.8314   11.7262 C.ar    1  UNL1       -0.0000
     58 C          65.4306   92.5525   10.7388 C.ar    1  UNL1       -0.0003
     59 C          64.2426   91.7329   11.1475 C.ar    1  UNL1       -0.0043
@<TRIPOS>BOND
     1    16    17    1
     2    17    18    1
     3    17    19    1
     4    19    20   ar
     5    20    21   ar
     6    21    22   ar
     7    22    24    1
     8    24    25   ar
     9    25    26   ar
    10    26    27   ar
    11    27    28   ar
    12    28    29   ar
    13    29    30    1
    14    22    23   ar
    15    17     1    1
    16     1     2    1
    17     2     3    1
    18     3     4    1
    19     4    31    1
    20    31    32    1
    21    32    33    1
    22    32    35    1
    23    36    35    1
    24    36    53    1
    25    53    54    1
    26    54    55   ar
    27    55    56   ar
    28    56    57   ar
    29    57    58   ar
    30    58    59   ar
    31    36    37    1
    32    37    38    2
    33    37    39   am
    34    41    39    1
    35    41    42    1
    36    42    43   ar
    37    43    44   ar
    38    44    45   ar
    39    45    46   ar
    40    46    47   ar
    41    47    48    1
    42    48    49    1
    43    49    50    1
    44    50    51    1
    45     4     5    1
    46     5     7    1
    47     7     8    2
    48     7     9   am
    49     9    11    1
    50    11    12    1
    51    12    13    1
    52    12    14    1
    53    12    15    1
    54     5     6    1
    55    23    19   ar
    56     6     1    1
    57    29    24   ar
    58    59    54   ar
    59    50    41    1
    60    47    42   ar
    61    33    34    1
    62    39    40    1
    63    51    52    1
    64     9    10    1
@<TRIPOS>MOLECULE
*****
 59 64 0 0 0
SMALL
GASTEIGER

@<TRIPOS>ATOM
      1 N          63.0162   85.3812   13.0693 N.3     1  UNL1       -0.2650
      2 C          63.7793   86.0023   14.2015 C.3     1  UNL1        0.0900
      3 C          63.9835   87.4877   14.2426 C.3     1  UNL1        0.0901
      4 N          63.4245   88.3521   13.1516 N.3     1  UNL1       -0.2621
      5 C          62.6613   87.7310   12.0194 C.3     1  UNL1        0.1510
      6 C          62.4571   86.2456   11.9782 C.3     1  UNL1        0.0980
      7 C          62.1023   88.5954   10.9283 C.2     1  UNL1        0.2386
      8 O          62.9135   89.7332   10.3830 O.2     1  UNL1       -0.2736
      9 N          60.7321   88.3220   10.3826 N.am    1  UNL1       -0.2961
     10 H          60.1997   87.5752   10.7405 H       1  UNL1        0.1497
     11 C          60.1731   89.1864    9.2916 C.3     1  UNL1        0.1939
     12 C          59.6206   88.5587    8.0463 C.3     1  UNL1        0.4154
     13 F          59.0680   87.9310    6.8010 F       1  UNL1       -0.1682
     14 F          59.1861   87.3635    8.8416 F       1  UNL1       -0.1682
     15 F          60.0552   89.7540    7.2511 F       1  UNL1       -0.1682
     16 C          62.9425   83.9191   11.5341 C.3     1  UNL1        0.0255
     17 C          62.8120   83.8957   13.0282 C.3     1  UNL1        0.1147
     18 C          62.6815   83.8723   14.5223 C.3     1  UNL1        0.0255
     19 C          62.6078   82.4102   12.9870 C.ar    1  UNL1        0.2185
     20 N          61.9446   81.5817   14.0471 N.ar    1  UNL1       -0.2094
     21 C          61.9579   80.1519   13.5938 C.ar    1  UNL1        0.1392
     22 C          62.6293   80.0967   12.2536 C.ar    1  UNL1        0.1683
     23 O          63.0310   81.4924   11.8786 O.2     1  UNL1       -0.4370
     24 C          62.8588   78.8625   11.4326 C.ar    1  UNL1        0.0659
     25 C          62.8316   77.5120   12.0848 C.ar    1  UNL1        0.1028
     26 N          63.0611   76.2778   11.2638 N.ar    1  UNL1       -0.2422
     27 C          63.3178   76.3942    9.7905 C.ar    1  UNL1        0.0998
     28 C          63.3450   77.7447    9.1383 C.ar    1  UNL1        0.0322
     29 C          63.1155   78.9789    9.9593 C.ar    1  UNL1        0.0637
     30 CL         63.1427   80.3294    9.3071 Cl      1  UNL1       -0.0820
     31 C          63.6287   89.8376   13.1927 C.3     1  UNL1        0.1021
     32 C          63.4280   90.5869   14.4765 C.3     1  UNL1        0.1269
     33 O          62.4331   90.0940   15.4850 O.3     1  UNL1       -0.3830
     34 H          62.0097   89.2867   15.1536 H       1  UNL1        0.2104
     35 C          64.2223   91.8293   14.7518 C.3     1  UNL1        0.0401
     36 C          65.5697   92.0136   14.1190 C.3     1  UNL1        0.0833
     37 C          65.6936   92.7553   12.8210 C.2     1  UNL1        0.2226
     38 O          64.9051   92.3105   11.6249 O.2     1  UNL1       -0.2751
     39 N          66.6058   93.9416   12.7192 N.am    1  UNL1       -0.2999
     40 H          67.1233   94.2334   13.5042 H       1  UNL1        0.1498
     41 C          66.7297   94.6832   11.4213 C.3     1  UNL1        0.1278
     42 C          67.3868   94.0280   10.2428 C.ar    1  UNL1        0.0320
     43 C          67.9201   92.6310   10.3623 C.ar    1  UNL1        0.0004
     44 C          68.5773   91.9758    9.1838 C.ar    1  UNL1       -0.0001
     45 C          68.7011   92.7174    7.8859 C.ar    1  UNL1        0.0031
     46 C          68.1679   94.1143    7.7664 C.ar    1  UNL1        0.0366
     47 C          67.5107   94.7696    8.9449 C.ar    1  UNL1        0.1362
     48 O          66.9775   96.1665    8.8254 O.3     1  UNL1       -0.4730
     49 C          66.3203   96.8218   10.0039 C.3     1  UNL1        0.2364
     50 C          66.1965   96.0801   11.3018 C.3     1  UNL1        0.1762
     51 O          65.5393   96.7354   12.4803 O.3     1  UNL1       -0.3788
     52 H          65.2535   97.6294   12.2354 H       1  UNL1        0.2106
     53 C          66.7933   91.4563   14.7841 C.3     1  UNL1        0.0355
     54 C          67.9489   92.3573   15.1045 C.ar    1  UNL1       -0.0217
     55 C          67.7739   93.4838   16.0794 C.ar    1  UNL1       -0.0043
     56 C          68.9295   94.3848   16.3999 C.ar    1  UNL1       -0.0003
     57 C          70.2602   94.1593   15.7454 C.ar    1  UNL1       -0.0000
     58 C          70.4353   93.0329   14.7705 C.ar    1  UNL1       -0.0003
     59 C          69.2797   92.1318   14.4500 C.ar    1  UNL1       -0.0043
@<TRIPOS>BOND
     1    16    17    1
     2    17    18    1
     3    17    19    1
     4    19    20   ar
     5    20    21   ar
     6    21    22   ar
     7    22    24    1
     8    24    25   ar
     9    25    26   ar
    10    26    27   ar
    11    27    28   ar
    12    28    29   ar
    13    29    30    1
    14    22    23   ar
    15    17     1    1
    16     1     2    1
    17     2     3    1
    18     3     4    1
    19     4    31    1
    20    31    32    1
    21    32    33    1
    22    32    35    1
    23    36    35    1
    24    36    53    1
    25    53    54    1
    26    54    55   ar
    27    55    56   ar
    28    56    57   ar
    29    57    58   ar
    30    58    59   ar
    31    36    37    1
    32    37    38    2
    33    37    39   am
    34    41    39    1
    35    41    42    1
    36    42    43   ar
    37    43    44   ar
    38    44    45   ar
    39    45    46   ar
    40    46    47   ar
    41    47    48    1
    42    48    49    1
    43    49    50    1
    44    50    51    1
    45     4     5    1
    46     5     7    1
    47     7     8    2
    48     7     9   am
    49     9    11    1
    50    11    12    1
    51    12    13    1
    52    12    14    1
    53    12    15    1
    54     5     6    1
    55    23    19   ar
    56     6     1    1
    57    29    24   ar
    58    59    54   ar
    59    50    41    1
    60    47    42   ar
    61    33    34    1
    62    39    40    1
    63    51    52    1
    64     9    10    1
