@<TRIPOS>MOLECULE
*****
 28 31 0 0 0
SMALL
GASTEIGER

@<TRIPOS>ATOM
      1 C          64.2627   90.1933   15.1091 C.ar    1  UNL1       -0.0001
      2 C          63.5153   90.1123   16.4071 C.ar    1  UNL1       -0.0003
      3 C          63.1167   88.7765   16.9610 C.ar    1  UNL1       -0.0032
      4 C          63.4654   87.5217   16.2169 C.ar    1  UNL1       -0.0088
      5 C          64.2128   87.6027   14.9189 C.ar    1  UNL1       -0.0088
      6 C          64.6114   88.9384   14.3650 C.ar    1  UNL1       -0.0032
      7 C          64.4164   86.2051   14.4133 C.3     1  UNL1        0.0991
      8 N          63.7949   85.2605   15.3988 N.3     1  UNL1       -0.2649
      9 C          63.2071   86.0742   16.5135 C.3     1  UNL1        0.0991
     10 C          65.8844   91.6497   13.6955 C.2     1  UNL1        0.0598
     11 C          64.6613   91.5290   14.5553 C.2     1  UNL1        0.0047
     12 O          66.2190   94.2069   14.0100 O.2     1  UNL1       -0.2681
     13 C          66.2830   92.9855   13.1416 C.2     1  UNL1        0.2679
     14 N          66.7457   93.0999   11.7193 N.am    1  UNL1       -0.1934
     15 O          67.1444   94.4357   11.1654 O.3     1  UNL1       -0.2949
     16 H          66.7878   92.2983   11.1494 H       1  UNL1        0.1825
     17 H          67.0449   95.1133   11.8524 H       1  UNL1        0.2414
     18 C          63.7661   83.7648   15.2890 C.3     1  UNL1        0.0775
     19 C          62.9297   83.1063   14.2321 C.3     1  UNL1        0.0469
     20 C          63.3906   83.1032   12.8048 C.ar    1  UNL1        0.0178
     21 C          64.3437   82.1226   12.1882 C.ar    1  UNL1        0.1178
     22 N          64.5215   82.4936   10.7456 N.ar    1  UNL1       -0.1638
     23 N          63.6784   83.7033   10.4708 N.ar    1  UNL1       -0.2285
     24 C          63.4567   84.5106    9.2261 C.ar    1  UNL1        0.1004
     25 C          62.5362   85.6946    9.2540 C.ar    1  UNL1        0.0207
     26 C          61.8373   86.0713   10.5266 C.ar    1  UNL1        0.0031
     27 C          62.0589   85.2642   11.7713 C.ar    1  UNL1        0.0189
     28 C          62.9795   84.0801   11.7434 C.ar    1  UNL1        0.0804
@<TRIPOS>BOND
     1    12    13    2
     2    13    10    1
     3    10    11    2
     4    11     1    1
     5     1     2   ar
     6     2     3   ar
     7     3     4   ar
     8     4     5   ar
     9     5     6   ar
    10     5     7    1
    11     7     8    1
    12     8    18    1
    13    18    19    1
    14    19    20    1
    15    20    21   ar
    16    21    22   ar
    17    22    23   ar
    18    23    24   ar
    19    24    25   ar
    20    25    26   ar
    21    26    27   ar
    22    27    28   ar
    23     8     9    1
    24    13    14   am
    25    14    15    1
    26     6     1   ar
    27    28    20   ar
    28     9     4    1
    29    28    23   ar
    30    14    16    1
    31    15    17    1
@<TRIPOS>MOLECULE
*****
 28 31 0 0 0
SMALL
GASTEIGER

@<TRIPOS>ATOM
      1 C          59.8980   87.8240    8.2455 C.ar    1  UNL1       -0.0001
      2 C          59.7704   88.1192    9.7106 C.ar    1  UNL1       -0.0003
      3 C          60.5880   87.3493   10.7048 C.ar    1  UNL1       -0.0032
      4 C          61.5333   86.2840   10.2341 C.ar    1  UNL1       -0.0088
      5 C          61.6609   85.9888    8.7690 C.ar    1  UNL1       -0.0088
      6 C          60.8433   86.7587    7.7747 C.ar    1  UNL1       -0.0032
      7 C          62.6684   84.8897    8.6036 C.3     1  UNL1        0.0991
      8 N          63.1634   84.5058    9.9666 N.3     1  UNL1       -0.2649
      9 C          62.4618   85.3675   10.9742 C.3     1  UNL1        0.0991
     10 C          59.6338   89.8430    6.6319 C.2     1  UNL1        0.0598
     11 C          59.0804   88.5940    7.2512 C.2     1  UNL1        0.0047
     12 O          59.4812   91.5965    4.7209 O.2     1  UNL1       -0.2681
     13 C          58.8161   90.6130    5.6376 C.2     1  UNL1        0.2679
     14 N          57.3334   90.3994    5.5601 N.am    1  UNL1       -0.1934
     15 O          56.5158   91.1694    4.5658 O.3     1  UNL1       -0.2949
     16 H          56.8969   89.7540    6.1618 H       1  UNL1        0.1825
     17 H          57.0955   91.7567    4.0561 H       1  UNL1        0.2414
     18 C          64.1812   83.4462   10.2688 C.3     1  UNL1        0.0775
     19 C          63.7748   82.2042   11.0051 C.3     1  UNL1        0.0469
     20 C          63.1534   82.3087   12.3663 C.ar    1  UNL1        0.0178
     21 C          62.0625   81.4325   12.9070 C.ar    1  UNL1        0.1178
     22 N          61.7486   81.8900   14.3007 N.ar    1  UNL1       -0.1638
     23 N          62.6454   83.0489   14.6212 N.ar    1  UNL1       -0.2285
     24 C          62.7836   83.9020   15.8472 C.ar    1  UNL1        0.1004
     25 C          63.7900   85.0139   15.8776 C.ar    1  UNL1        0.0207
     26 C          64.6582   85.2726   14.6821 C.ar    1  UNL1        0.0031
     27 C          64.5200   84.4195   13.4561 C.ar    1  UNL1        0.0189
     28 C          63.5136   83.3076   13.4256 C.ar    1  UNL1        0.0804
@<TRIPOS>BOND
     1    12    13    2
     2    13    10    1
     3    10    11    2
     4    11     1    1
     5     1     2   ar
     6     2     3   ar
     7     3     4   ar
     8     4     5   ar
     9     5     6   ar
    10     5     7    1
    11     7     8    1
    12     8    18    1
    13    18    19    1
    14    19    20    1
    15    20    21   ar
    16    21    22   ar
    17    22    23   ar
    18    23    24   ar
    19    24    25   ar
    20    25    26   ar
    21    26    27   ar
    22    27    28   ar
    23     8     9    1
    24    13    14   am
    25    14    15    1
    26     6     1   ar
    27    28    20   ar
    28     9     4    1
    29    28    23   ar
    30    14    16    1
    31    15    17    1
@<TRIPOS>MOLECULE
*****
 28 31 0 0 0
SMALL
GASTEIGER

@<TRIPOS>ATOM
      1 C          59.7897   88.1979    8.0089 C.ar    1  UNL1       -0.0001
      2 C          60.0155   86.7300    7.7984 C.ar    1  UNL1       -0.0003
      3 C          60.8608   85.9550    8.7652 C.ar    1  UNL1       -0.0032
      4 C          61.4804   86.6478    9.9425 C.ar    1  UNL1       -0.0088
      5 C          61.2546   88.1157   10.1530 C.ar    1  UNL1       -0.0088
      6 C          60.4093   88.8907    9.1862 C.ar    1  UNL1       -0.0032
      7 C          61.9892   88.5242   11.3954 C.3     1  UNL1        0.0991
      8 N          62.6690   87.3088   11.9527 N.3     1  UNL1       -0.2649
      9 C          62.3545   86.1491   11.0548 C.3     1  UNL1        0.0991
     10 C          59.5289   90.1400    6.3030 C.2     1  UNL1        0.0598
     11 C          58.9444   88.9729    7.0421 C.2     1  UNL1        0.0047
     12 O          59.3251   91.8863    4.3902 O.2     1  UNL1       -0.2681
     13 C          58.6835   90.9150    5.3362 C.2     1  UNL1        0.2679
     14 N          57.1965   90.7188    5.3154 N.am    1  UNL1       -0.1934
     15 O          56.3512   91.4938    4.3485 O.3     1  UNL1       -0.2949
     16 H          56.7754   90.0813    5.9362 H       1  UNL1        0.1825
     17 H          56.9182   92.0718    3.8145 H       1  UNL1        0.2414
     18 C          63.5148   87.2613   13.1907 C.3     1  UNL1        0.0775
     19 C          64.2310   85.9966   13.5616 C.3     1  UNL1        0.0469
     20 C          63.4772   84.8668   14.1981 C.ar    1  UNL1        0.0178
     21 C          62.8994   84.8618   15.5824 C.ar    1  UNL1        0.1178
     22 N          62.2339   83.5355   15.8020 N.ar    1  UNL1       -0.1638
     23 N          62.4004   82.7210   14.5534 N.ar    1  UNL1       -0.2285
     24 C          61.9516   81.3363   14.1911 C.ar    1  UNL1        0.1004
     25 C          62.2711   80.7745   12.8375 C.ar    1  UNL1        0.0207
     26 C          63.0395   81.5974   11.8463 C.ar    1  UNL1        0.0031
     27 C          63.4883   82.9819   12.2086 C.ar    1  UNL1        0.0189
     28 C          63.1688   83.5438   13.5623 C.ar    1  UNL1        0.0804
@<TRIPOS>BOND
     1    12    13    2
     2    13    10    1
     3    10    11    2
     4    11     1    1
     5     1     2   ar
     6     2     3   ar
     7     3     4   ar
     8     4     5   ar
     9     5     6   ar
    10     5     7    1
    11     7     8    1
    12     8    18    1
    13    18    19    1
    14    19    20    1
    15    20    21   ar
    16    21    22   ar
    17    22    23   ar
    18    23    24   ar
    19    24    25   ar
    20    25    26   ar
    21    26    27   ar
    22    27    28   ar
    23     8     9    1
    24    13    14   am
    25    14    15    1
    26     6     1   ar
    27    28    20   ar
    28     9     4    1
    29    28    23   ar
    30    14    16    1
    31    15    17    1
@<TRIPOS>MOLECULE
*****
 28 31 0 0 0
SMALL
GASTEIGER

@<TRIPOS>ATOM
      1 C          60.1139   88.3158    8.2830 C.ar    1  UNL1       -0.0001
      2 C          60.3667   86.8418    8.3979 C.ar    1  UNL1       -0.0003
      3 C          61.2310   86.3130    9.5040 C.ar    1  UNL1       -0.0032
      4 C          61.8423   87.2583   10.4953 C.ar    1  UNL1       -0.0088
      5 C          61.5894   88.7324   10.3804 C.ar    1  UNL1       -0.0088
      6 C          60.7252   89.2611    9.2743 C.ar    1  UNL1       -0.0032
      7 C          62.3215   89.4167   11.4966 C.3     1  UNL1        0.0991
      8 N          63.0268   88.3655   12.3013 N.3     1  UNL1       -0.2649
      9 C          62.7306   87.0316   11.6825 C.3     1  UNL1        0.0991
     10 C          59.5077   90.2093    6.6105 C.2     1  UNL1        0.0598
     11 C          59.2497   88.8445    7.1768 C.2     1  UNL1        0.0047
     12 O          59.2684   91.4349    4.3323 O.2     1  UNL1       -0.2681
     13 C          58.6435   90.7380    5.5044 C.2     1  UNL1        0.2679
     14 N          57.1544   90.5699    5.5704 N.am    1  UNL1       -0.1934
     15 O          56.2902   91.0986    4.4642 O.3     1  UNL1       -0.2949
     16 H          56.7443   90.1125    6.3397 H       1  UNL1        0.1825
     17 H          56.8480   91.5171    3.7900 H       1  UNL1        0.2414
     18 C          63.8788   88.6060   13.5123 C.3     1  UNL1        0.0775
     19 C          63.6202   89.7971   14.3867 C.3     1  UNL1        0.0469
     20 C          64.5336   90.9852   14.3250 C.ar    1  UNL1        0.0178
     21 C          65.2535   91.6051   15.4859 C.ar    1  UNL1        0.1178
     22 N          66.0524   92.7651   14.9699 N.ar    1  UNL1       -0.1638
     23 N          65.8262   92.8621   13.4902 N.ar    1  UNL1       -0.2285
     24 C          66.3537   93.8100   12.4543 C.ar    1  UNL1        0.1004
     25 C          65.9426   93.6579   11.0198 C.ar    1  UNL1        0.0207
     26 C          65.0040   92.5578   10.6212 C.ar    1  UNL1        0.0031
     27 C          64.4765   91.6100   11.6571 C.ar    1  UNL1        0.0189
     28 C          64.8876   91.7621   13.0917 C.ar    1  UNL1        0.0804
@<TRIPOS>BOND
     1    12    13    2
     2    13    10    1
     3    10    11    2
     4    11     1    1
     5     1     2   ar
     6     2     3   ar
     7     3     4   ar
     8     4     5   ar
     9     5     6   ar
    10     5     7    1
    11     7     8    1
    12     8    18    1
    13    18    19    1
    14    19    20    1
    15    20    21   ar
    16    21    22   ar
    17    22    23   ar
    18    23    24   ar
    19    24    25   ar
    20    25    26   ar
    21    26    27   ar
    22    27    28   ar
    23     8     9    1
    24    13    14   am
    25    14    15    1
    26     6     1   ar
    27    28    20   ar
    28     9     4    1
    29    28    23   ar
    30    14    16    1
    31    15    17    1
@<TRIPOS>MOLECULE
*****
 28 31 0 0 0
SMALL
GASTEIGER

@<TRIPOS>ATOM
      1 C          65.2659   92.4690   11.7937 C.ar    1  UNL1       -0.0001
      2 C          65.3866   91.8919   13.1729 C.ar    1  UNL1       -0.0003
      3 C          64.5228   90.7352   13.5802 C.ar    1  UNL1       -0.0032
      4 C          63.5382   90.1556   12.6083 C.ar    1  UNL1       -0.0088
      5 C          63.4175   90.7327   11.2290 C.ar    1  UNL1       -0.0088
      6 C          64.2814   91.8894   10.8218 C.ar    1  UNL1       -0.0032
      7 C          62.3653   89.9577   10.4926 C.3     1  UNL1        0.0991
      8 N          61.8357   88.9016   11.4168 N.3     1  UNL1       -0.2649
      9 C          62.5606   89.0239   12.7243 C.3     1  UNL1        0.0991
     10 C          65.6919   94.5343   10.2762 C.2     1  UNL1        0.0598
     11 C          66.1297   93.6257   11.3864 C.2     1  UNL1        0.0047
     12 O          66.7620   96.8409   10.8098 O.2     1  UNL1       -0.2681
     13 C          66.5558   95.6910    9.8689 C.2     1  UNL1        0.2679
     14 N          67.2134   95.6978    8.5207 N.am    1  UNL1       -0.1934
     15 O          68.0772   96.8545    8.1134 O.3     1  UNL1       -0.2949
     16 H          67.0780   94.9431    7.9032 H       1  UNL1        0.1825
     17 H          68.1045   97.5062    8.8314 H       1  UNL1        0.2414
     18 C          60.7685   87.8991   11.0908 C.3     1  UNL1        0.0775
     19 C          60.7894   87.1833    9.7728 C.3     1  UNL1        0.0469
     20 C          61.7918   86.0951    9.5262 C.ar    1  UNL1        0.0178
     21 C          62.3301   85.6787    8.1894 C.ar    1  UNL1        0.1178
     22 N          63.3030   84.5585    8.4101 N.ar    1  UNL1       -0.1638
     23 N          63.3659   84.2825    9.8831 N.ar    1  UNL1       -0.2285
     24 C          64.1529   83.2892   10.6855 C.ar    1  UNL1        0.1004
     25 C          64.0060   83.2456   12.1777 C.ar    1  UNL1        0.0207
     26 C          63.0721   84.1953   12.8674 C.ar    1  UNL1        0.0031
     27 C          62.2851   85.1886   12.0651 C.ar    1  UNL1        0.0189
     28 C          62.4319   85.2322   10.5729 C.ar    1  UNL1        0.0804
@<TRIPOS>BOND
     1    12    13    2
     2    13    10    1
     3    10    11    2
     4    11     1    1
     5     1     2   ar
     6     2     3   ar
     7     3     4   ar
     8     4     5   ar
     9     5     6   ar
    10     5     7    1
    11     7     8    1
    12     8    18    1
    13    18    19    1
    14    19    20    1
    15    20    21   ar
    16    21    22   ar
    17    22    23   ar
    18    23    24   ar
    19    24    25   ar
    20    25    26   ar
    21    26    27   ar
    22    27    28   ar
    23     8     9    1
    24    13    14   am
    25    14    15    1
    26     6     1   ar
    27    28    20   ar
    28     9     4    1
    29    28    23   ar
    30    14    16    1
    31    15    17    1
@<TRIPOS>MOLECULE
*****
 28 31 0 0 0
SMALL
GASTEIGER

@<TRIPOS>ATOM
      1 C          62.4335   84.8373   11.1909 C.ar    1  UNL1       -0.0001
      2 C          61.9956   85.0328    9.7696 C.ar    1  UNL1       -0.0003
      3 C          61.9243   86.4145    9.1900 C.ar    1  UNL1       -0.0032
      4 C          62.2908   87.6007   10.0317 C.ar    1  UNL1       -0.0088
      5 C          62.7287   87.4052   11.4530 C.ar    1  UNL1       -0.0088
      6 C          62.8000   86.0235   12.0325 C.ar    1  UNL1       -0.0032
      7 C          63.0262   88.7549   12.0362 C.3     1  UNL1        0.0991
      8 N          62.7721   89.7844   10.9753 N.3     1  UNL1       -0.2649
      9 C          62.3177   89.0711    9.7365 C.3     1  UNL1        0.0991
     10 C          62.3714   83.2556   13.2510 C.2     1  UNL1        0.0598
     11 C          62.5048   83.4557   11.7704 C.2     1  UNL1        0.0047
     12 O          61.1986   81.2097   14.3413 O.2     1  UNL1       -0.2681
     13 C          62.4427   81.8739   13.8305 C.2     1  UNL1        0.2679
     14 N          63.7583   81.1565   13.8994 N.am    1  UNL1       -0.1934
     15 O          63.8296   79.7748   14.4789 O.3     1  UNL1       -0.2949
     16 H          64.5748   81.5924   13.5641 H       1  UNL1        0.1825
     17 H          62.9439   79.4957   14.7594 H       1  UNL1        0.2414
     18 C          62.9426   91.2670   11.1267 C.3     1  UNL1        0.0775
     19 C          64.0964   91.9607   10.4652 C.3     1  UNL1        0.0469
     20 C          65.0393   92.7933   11.2822 C.ar    1  UNL1        0.0178
     21 C          65.7549   94.0270   10.8177 C.ar    1  UNL1        0.1178
     22 N          66.5901   94.5345   11.9557 N.ar    1  UNL1       -0.1638
     23 N          66.3906   93.6145   13.1234 N.ar    1  UNL1       -0.2285
     24 C          66.9579   93.6175   14.5120 C.ar    1  UNL1        0.1004
     25 C          66.5667   92.5444   15.4844 C.ar    1  UNL1        0.0207
     26 C          65.6083   91.4683   15.0681 C.ar    1  UNL1        0.0031
     27 C          65.0410   91.4652   13.6796 C.ar    1  UNL1        0.0189
     28 C          65.4322   92.5383   12.7072 C.ar    1  UNL1        0.0804
@<TRIPOS>BOND
     1    12    13    2
     2    13    10    1
     3    10    11    2
     4    11     1    1
     5     1     2   ar
     6     2     3   ar
     7     3     4   ar
     8     4     5   ar
     9     5     6   ar
    10     5     7    1
    11     7     8    1
    12     8    18    1
    13    18    19    1
    14    19    20    1
    15    20    21   ar
    16    21    22   ar
    17    22    23   ar
    18    23    24   ar
    19    24    25   ar
    20    25    26   ar
    21    26    27   ar
    22    27    28   ar
    23     8     9    1
    24    13    14   am
    25    14    15    1
    26     6     1   ar
    27    28    20   ar
    28     9     4    1
    29    28    23   ar
    30    14    16    1
    31    15    17    1
@<TRIPOS>MOLECULE
*****
 28 31 0 0 0
SMALL
GASTEIGER

@<TRIPOS>ATOM
      1 C          64.5253   92.1261   11.4837 C.ar    1  UNL1       -0.0001
      2 C          63.6066   91.3788   10.5632 C.ar    1  UNL1       -0.0003
      3 C          63.1098   90.0155   10.9436 C.ar    1  UNL1       -0.0032
      4 C          63.5317   89.3996   12.2446 C.ar    1  UNL1       -0.0088
      5 C          64.4504   90.1469   13.1651 C.ar    1  UNL1       -0.0088
      6 C          64.9472   91.5101   12.7847 C.ar    1  UNL1       -0.0032
      7 C          64.6932   89.2910   14.3729 C.3     1  UNL1        0.0991
      8 N          63.9245   88.0148   14.1988 N.3     1  UNL1       -0.2649
      9 C          63.2066   88.0819   12.8834 C.3     1  UNL1        0.0991
     10 C          66.3511   93.6408   10.4246 C.2     1  UNL1        0.0598
     11 C          65.0221   93.4893   11.1033 C.2     1  UNL1        0.0047
     12 O          66.7113   96.1473   11.0055 O.2     1  UNL1       -0.2681
     13 C          66.8479   95.0041   10.0442 C.2     1  UNL1        0.2679
     14 N          67.4814   95.2240    8.7023 N.am    1  UNL1       -0.1934
     15 O          67.9782   96.5873    8.3219 O.3     1  UNL1       -0.2949
     16 H          67.5710   94.4736    8.0713 H       1  UNL1        0.1825
     17 H          67.8142   97.2061    9.0506 H       1  UNL1        0.2414
     18 C          63.8812   86.8721   15.1696 C.3     1  UNL1        0.0775
     19 C          64.5682   85.5804   14.8385 C.3     1  UNL1        0.0469
     20 C          63.7582   84.3442   14.5826 C.ar    1  UNL1        0.0178
     21 C          62.8363   83.6763   15.5594 C.ar    1  UNL1        0.1178
     22 N          62.2362   82.4781   14.8853 N.ar    1  UNL1       -0.1638
     23 N          62.7871   82.4056   13.4920 N.ar    1  UNL1       -0.2285
     24 C          62.5537   81.4384   12.3695 C.ar    1  UNL1        0.1004
     25 C          63.2610   81.6246   11.0599 C.ar    1  UNL1        0.0207
     26 C          64.2017   82.7779   10.8728 C.ar    1  UNL1        0.0031
     27 C          64.4350   83.7450   11.9953 C.ar    1  UNL1        0.0189
     28 C          63.7277   83.5589   13.3050 C.ar    1  UNL1        0.0804
@<TRIPOS>BOND
     1    12    13    2
     2    13    10    1
     3    10    11    2
     4    11     1    1
     5     1     2   ar
     6     2     3   ar
     7     3     4   ar
     8     4     5   ar
     9     5     6   ar
    10     5     7    1
    11     7     8    1
    12     8    18    1
    13    18    19    1
    14    19    20    1
    15    20    21   ar
    16    21    22   ar
    17    22    23   ar
    18    23    24   ar
    19    24    25   ar
    20    25    26   ar
    21    26    27   ar
    22    27    28   ar
    23     8     9    1
    24    13    14   am
    25    14    15    1
    26     6     1   ar
    27    28    20   ar
    28     9     4    1
    29    28    23   ar
    30    14    16    1
    31    15    17    1
@<TRIPOS>MOLECULE
*****
 28 31 0 0 0
SMALL
GASTEIGER

@<TRIPOS>ATOM
      1 C          61.8779   89.5335   10.4714 C.ar    1  UNL1       -0.0001
      2 C          62.4308   90.7342   11.1803 C.ar    1  UNL1       -0.0003
      3 C          63.2589   90.5587   12.4186 C.ar    1  UNL1       -0.0032
      4 C          63.5343   89.1825   12.9479 C.ar    1  UNL1       -0.0088
      5 C          62.9815   87.9818   12.2390 C.ar    1  UNL1       -0.0088
      6 C          62.1533   88.1573   11.0007 C.ar    1  UNL1       -0.0032
      7 C          63.4166   86.7586   12.9904 C.3     1  UNL1        0.0991
      8 N          64.2383   87.2034   14.1638 N.3     1  UNL1       -0.2649
      9 C          64.3110   88.7014   14.1375 C.3     1  UNL1        0.0991
     10 C          60.2075   88.5756    8.7273 C.2     1  UNL1        0.0598
     11 C          61.0498   89.7090    9.2331 C.2     1  UNL1        0.0047
     12 O          58.4267   87.6729    7.0648 O.2     1  UNL1       -0.2681
     13 C          59.3793   88.7511    7.4890 C.2     1  UNL1        0.2679
     14 N          59.5037   90.0049    6.6749 N.am    1  UNL1       -0.1934
     15 O          58.6756   90.1804    5.4367 O.3     1  UNL1       -0.2949
     16 H          60.1290   90.7126    6.9534 H       1  UNL1        0.1825
     17 H          58.1179   89.3974    5.3070 H       1  UNL1        0.2414
     18 C          64.8754   86.3075   15.1844 C.3     1  UNL1        0.0775
     19 C          65.3089   84.9236   14.8012 C.3     1  UNL1        0.0469
     20 C          64.2822   83.8714   14.5037 C.ar    1  UNL1        0.0178
     21 C          63.2921   83.3053   15.4780 C.ar    1  UNL1        0.1178
     22 N          62.4631   82.2846   14.7561 N.ar    1  UNL1       -0.1638
     23 N          62.9410   82.2199   13.3357 N.ar    1  UNL1       -0.2285
     24 C          62.4976   81.3947   12.1642 C.ar    1  UNL1        0.1004
     25 C          63.1785   81.5502   10.8367 C.ar    1  UNL1        0.0207
     26 C          64.3027   82.5309   10.6808 C.ar    1  UNL1        0.0031
     27 C          64.7460   83.3561   11.8522 C.ar    1  UNL1        0.0189
     28 C          64.0652   83.2007   13.1798 C.ar    1  UNL1        0.0804
@<TRIPOS>BOND
     1    12    13    2
     2    13    10    1
     3    10    11    2
     4    11     1    1
     5     1     2   ar
     6     2     3   ar
     7     3     4   ar
     8     4     5   ar
     9     5     6   ar
    10     5     7    1
    11     7     8    1
    12     8    18    1
    13    18    19    1
    14    19    20    1
    15    20    21   ar
    16    21    22   ar
    17    22    23   ar
    18    23    24   ar
    19    24    25   ar
    20    25    26   ar
    21    26    27   ar
    22    27    28   ar
    23     8     9    1
    24    13    14   am
    25    14    15    1
    26     6     1   ar
    27    28    20   ar
    28     9     4    1
    29    28    23   ar
    30    14    16    1
    31    15    17    1
@<TRIPOS>MOLECULE
*****
 28 31 0 0 0
SMALL
GASTEIGER

@<TRIPOS>ATOM
      1 C          59.4961   88.7405    7.4695 C.ar    1  UNL1       -0.0001
      2 C          59.3900   87.3158    7.0125 C.ar    1  UNL1       -0.0003
      3 C          59.9499   86.2125    7.8605 C.ar    1  UNL1       -0.0032
      4 C          60.6159   86.5338    9.1655 C.ar    1  UNL1       -0.0088
      5 C          60.7220   87.9586    9.6225 C.ar    1  UNL1       -0.0088
      6 C          60.1621   89.0619    8.7745 C.ar    1  UNL1       -0.0032
      7 C          61.4279   87.9695   10.9460 C.3     1  UNL1        0.0991
      8 N          61.7581   86.5515   11.3070 N.3     1  UNL1       -0.2649
      9 C          61.2562   85.6643   10.2066 C.3     1  UNL1        0.0991
     10 C          59.8055   90.5238    5.6056 C.2     1  UNL1        0.0598
     11 C          58.9362   89.8438    6.6214 C.2     1  UNL1        0.0047
     12 O          57.7819   91.9498    4.8170 O.2     1  UNL1       -0.2681
     13 C          59.2456   91.6272    4.7576 C.2     1  UNL1        0.2679
     14 N          60.1494   92.4080    3.8501 N.am    1  UNL1       -0.1934
     15 O          59.5895   93.5113    3.0020 O.3     1  UNL1       -0.2949
     16 H          61.1101   92.1962    3.8111 H       1  UNL1        0.1825
     17 H          58.6355   93.5878    3.1596 H       1  UNL1        0.2414
     18 C          62.4659   86.1001   12.5501 C.3     1  UNL1        0.0775
     19 C          63.7153   85.2768   12.4447 C.3     1  UNL1        0.0469
     20 C          63.6472   83.8745   11.9166 C.ar    1  UNL1        0.0178
     21 C          64.1878   83.4009   10.6000 C.ar    1  UNL1        0.1178
     22 N          63.9012   81.9332   10.4822 N.ar    1  UNL1       -0.1638
     23 N          63.1834   81.4998   11.7259 N.ar    1  UNL1       -0.2285
     24 C          62.6525   80.1677   12.1658 C.ar    1  UNL1        0.1004
     25 C          61.9646   80.0353   13.4921 C.ar    1  UNL1        0.0207
     26 C          61.8076   81.2350   14.3786 C.ar    1  UNL1        0.0031
     27 C          62.3385   82.5671   13.9388 C.ar    1  UNL1        0.0189
     28 C          63.0264   82.6996   12.6124 C.ar    1  UNL1        0.0804
@<TRIPOS>BOND
     1    12    13    2
     2    13    10    1
     3    10    11    2
     4    11     1    1
     5     1     2   ar
     6     2     3   ar
     7     3     4   ar
     8     4     5   ar
     9     5     6   ar
    10     5     7    1
    11     7     8    1
    12     8    18    1
    13    18    19    1
    14    19    20    1
    15    20    21   ar
    16    21    22   ar
    17    22    23   ar
    18    23    24   ar
    19    24    25   ar
    20    25    26   ar
    21    26    27   ar
    22    27    28   ar
    23     8     9    1
    24    13    14   am
    25    14    15    1
    26     6     1   ar
    27    28    20   ar
    28     9     4    1
    29    28    23   ar
    30    14    16    1
    31    15    17    1
