@<TRIPOS>MOLECULE
*****
 27 29 0 0 0
SMALL
GASTEIGER

@<TRIPOS>ATOM
      1 C          64.5227   87.2895   14.9269 C.3     1  UNL1        0.2066
      2 C          64.1212   88.3620   13.9582 C.2     1  UNL1        0.3580
      3 N          63.2356   88.0284   12.7944 N.2     1  UNL1       -0.0039
      4 C          62.8342   89.1010   11.8257 C.2     1  UNL1        0.3159
      5 C          63.3183   90.5072   12.0208 C.3     1  UNL1        0.2333
      6 C          64.2040   90.8409   13.1846 C.2     1  UNL1        0.3644
      7 O          64.6881   92.2471   13.3796 O.2     1  UNL1       -0.2422
      8 N          64.6054   89.7683   14.1533 N.am    1  UNL1        0.0289
      9 N          61.9485   88.7673   10.6619 N.pl3   1  UNL1       -0.1888
     10 C          61.9588   87.3830   10.0843 C.3     1  UNL1        0.2343
     11 C          61.0731   87.0494    8.9206 C.3     1  UNL1        0.1929
     12 O          60.1773   88.1001    8.3345 O.3     1  UNL1       -0.3449
     13 C          60.1670   89.4843    8.9121 C.3     1  UNL1        0.1929
     14 C          61.0526   89.8179   10.0758 C.3     1  UNL1        0.2343
     15 N          62.9703   85.3466   14.1750 N.am    1  UNL1       -0.2833
     16 C          64.3286   85.8456   14.5699 C.2     1  UNL1        0.2387
     17 O          65.4929   84.9005   14.6079 O.2     1  UNL1       -0.2741
     18 H          62.2061   85.9669   14.1500 H       1  UNL1        0.1549
     19 C          62.9818   81.9616   12.1033 C.ar    1  UNL1        0.1672
     20 C          63.1758   83.4055   12.4603 C.ar    1  UNL1        0.0539
     21 C          62.7762   83.9026   13.8180 C.ar    1  UNL1        0.0535
     22 C          62.1827   82.9559   14.8186 C.ar    1  UNL1        0.0172
     23 C          61.9887   81.5120   14.4616 C.ar    1  UNL1        0.0340
     24 C          62.3882   81.0149   13.1040 C.ar    1  UNL1        0.1739
     25 F          62.1942   79.5709   12.7470 F       1  UNL1       -0.2010
     26 C          64.2185   82.3264    9.8478 C.3     1  UNL1        0.2526
     27 O          63.3814   81.4645   10.7457 O.3     1  UNL1       -0.4691
@<TRIPOS>BOND
     1    26    27    1
     2    27    19    1
     3    19    20   ar
     4    20    21   ar
     5    21    15    1
     6    15    16   am
     7    16    17    2
     8    16     1    1
     9     1     2    1
    10     2     3    1
    11     3     4    2
    12     4     9    1
    13     9    10    1
    14    10    11    1
    15    11    12    1
    16    12    13    1
    17    13    14    1
    18     4     5    1
    19     5     6    1
    20     6     7    2
    21     6     8    1
    22    21    22   ar
    23    22    23   ar
    24    23    24   ar
    25    24    25    1
    26    24    19   ar
    27     8     2    2
    28    14     9    1
    29    15    18    1
@<TRIPOS>MOLECULE
*****
 27 29 0 0 0
SMALL
GASTEIGER

@<TRIPOS>ATOM
      1 C          64.5724   87.1044   14.9110 C.3     1  UNL1        0.2066
      2 C          64.1705   88.2445   14.0229 C.2     1  UNL1        0.3580
      3 N          63.2685   87.9994   12.8498 N.2     1  UNL1       -0.0039
      4 C          62.8667   89.1395   11.9616 C.2     1  UNL1        0.3159
      5 C          63.3669   90.5246   12.2465 C.3     1  UNL1        0.2333
      6 C          64.2690   90.7697   13.4197 C.2     1  UNL1        0.3644
      7 O          64.7692   92.1548   13.7047 O.2     1  UNL1       -0.2422
      8 N          64.6708   89.6296   14.3079 N.am    1  UNL1        0.0289
      9 N          61.9646   88.8944   10.7884 N.pl3   1  UNL1       -0.1888
     10 C          61.9989   87.5731   10.0791 C.3     1  UNL1        0.2343
     11 C          61.0968   87.3281    8.9060 C.3     1  UNL1        0.1929
     12 O          60.1605   88.4043    8.4422 O.3     1  UNL1       -0.3449
     13 C          60.1262   89.7255    9.1515 C.3     1  UNL1        0.1929
     14 C          61.0283   89.9705   10.3246 C.3     1  UNL1        0.2343
     15 N          63.1884   85.2454   13.7368 N.am    1  UNL1       -0.2833
     16 C          64.4458   85.6921   14.4220 C.2     1  UNL1        0.2387
     17 O          65.5766   84.7262   14.6183 O.2     1  UNL1       -0.2741
     18 H          62.4462   85.8793   13.6080 H       1  UNL1        0.1549
     19 C          62.1364   81.4236   13.5448 C.ar    1  UNL1        0.1672
     20 C          62.2629   82.8360   14.0337 C.ar    1  UNL1        0.0539
     21 C          63.0619   83.8330   13.2478 C.ar    1  UNL1        0.0535
     22 C          63.7343   83.4176   11.9730 C.ar    1  UNL1        0.0172
     23 C          63.6077   82.0052   11.4841 C.ar    1  UNL1        0.0340
     24 C          62.8088   81.0082   12.2700 C.ar    1  UNL1        0.1739
     25 F          62.6822   79.5958   11.7810 F       1  UNL1       -0.2010
     26 C          59.8413   80.4131   14.2241 C.3     1  UNL1        0.2526
     27 O          61.3374   80.4266   14.3307 O.3     1  UNL1       -0.4691
@<TRIPOS>BOND
     1    26    27    1
     2    27    19    1
     3    19    20   ar
     4    20    21   ar
     5    21    15    1
     6    15    16   am
     7    16    17    2
     8    16     1    1
     9     1     2    1
    10     2     3    1
    11     3     4    2
    12     4     9    1
    13     9    10    1
    14    10    11    1
    15    11    12    1
    16    12    13    1
    17    13    14    1
    18     4     5    1
    19     5     6    1
    20     6     7    2
    21     6     8    1
    22    21    22   ar
    23    22    23   ar
    24    23    24   ar
    25    24    25    1
    26    24    19   ar
    27     8     2    2
    28    14     9    1
    29    15    18    1
@<TRIPOS>MOLECULE
*****
 27 29 0 0 0
SMALL
GASTEIGER

@<TRIPOS>ATOM
      1 C          63.1007   90.6444   12.9786 C.3     1  UNL1        0.2066
      2 C          64.4422   91.3123   13.0443 C.2     1  UNL1        0.3580
      3 N          64.8333   92.3141   11.9988 N.2     1  UNL1       -0.0039
      4 C          66.1748   92.9820   12.0645 C.2     1  UNL1        0.3159
      5 C          67.1252   92.6480   13.1759 C.3     1  UNL1        0.2333
      6 C          66.7341   91.6461   14.2215 C.2     1  UNL1        0.3644
      7 O          67.6846   91.3121   15.3329 O.2     1  UNL1       -0.2422
      8 N          65.3926   90.9782   14.1558 N.am    1  UNL1        0.0289
      9 N          66.5659   93.9839   11.0189 N.pl3   1  UNL1       -0.1888
     10 C          66.2990   95.4431   11.2413 C.3     1  UNL1        0.2343
     11 C          66.6900   96.4449   10.1956 C.3     1  UNL1        0.1929
     12 O          67.3480   95.9875    8.9276 O.3     1  UNL1       -0.3449
     13 C          67.6150   94.5284    8.7052 C.3     1  UNL1        0.1929
     14 C          67.2239   93.5265    9.7509 C.3     1  UNL1        0.2343
     15 N          61.8851   88.6115   11.9111 N.am    1  UNL1       -0.2833
     16 C          62.7163   89.8515   11.7647 C.2     1  UNL1        0.2387
     17 O          63.1632   90.2986   10.4043 O.2     1  UNL1       -0.2741
     18 H          61.5918   88.3181   12.8039 H       1  UNL1        0.1549
     19 C          60.0647   87.5469    8.5491 C.ar    1  UNL1        0.1672
     20 C          60.4491   88.3397    9.7630 C.ar    1  UNL1        0.0539
     21 C          61.5007   87.8186   10.6971 C.ar    1  UNL1        0.0535
     22 C          62.1679   86.5047   10.4173 C.ar    1  UNL1        0.0172
     23 C          61.7835   85.7119    9.2034 C.ar    1  UNL1        0.0340
     24 C          60.7319   86.2330    8.2693 C.ar    1  UNL1        0.1739
     25 F          60.3476   85.4401    7.0553 F       1  UNL1       -0.2010
     26 C          59.2900   89.2792    6.7746 C.3     1  UNL1        0.2526
     27 O          59.0131   88.0680    7.6150 O.3     1  UNL1       -0.4691
@<TRIPOS>BOND
     1    26    27    1
     2    27    19    1
     3    19    20   ar
     4    20    21   ar
     5    21    15    1
     6    15    16   am
     7    16    17    2
     8    16     1    1
     9     1     2    1
    10     2     3    1
    11     3     4    2
    12     4     9    1
    13     9    10    1
    14    10    11    1
    15    11    12    1
    16    12    13    1
    17    13    14    1
    18     4     5    1
    19     5     6    1
    20     6     7    2
    21     6     8    1
    22    21    22   ar
    23    22    23   ar
    24    23    24   ar
    25    24    25    1
    26    24    19   ar
    27     8     2    2
    28    14     9    1
    29    15    18    1
@<TRIPOS>MOLECULE
*****
 27 29 0 0 0
SMALL
GASTEIGER

@<TRIPOS>ATOM
      1 C          64.2570   87.7915   14.5375 C.3     1  UNL1        0.2066
      2 C          63.9116   88.8066   13.4885 C.2     1  UNL1        0.3580
      3 N          64.6830   90.0902   13.4041 N.2     1  UNL1       -0.0039
      4 C          64.3375   91.1053   12.3552 C.2     1  UNL1        0.3159
      5 C          63.2206   90.8367   11.3906 C.3     1  UNL1        0.2333
      6 C          62.4492   89.5530   11.4750 C.2     1  UNL1        0.3644
      7 O          61.3323   89.2845   10.5104 O.2     1  UNL1       -0.2422
      8 N          62.7946   88.5380   12.5239 N.am    1  UNL1        0.0289
      9 N          65.1090   92.3890   12.2708 N.pl3   1  UNL1       -0.1888
     10 C          65.1707   93.1432   10.9758 C.3     1  UNL1        0.2343
     11 C          65.9421   94.4268   10.8915 C.3     1  UNL1        0.1929
     12 O          66.6519   94.9562   12.1022 O.3     1  UNL1       -0.3449
     13 C          66.5902   94.2020   13.3973 C.3     1  UNL1        0.1929
     14 C          65.8188   92.9183   13.4816 C.3     1  UNL1        0.2343
     15 N          63.2156   85.8622   13.1435 N.am    1  UNL1       -0.2833
     16 C          64.1347   86.3277   14.2337 C.2     1  UNL1        0.2387
     17 O          64.9313   85.3293   15.0203 O.2     1  UNL1       -0.2741
     18 H          62.6928   86.5174   12.6272 H       1  UNL1        0.1549
     19 C          62.2819   82.0222   13.5071 C.ar    1  UNL1        0.1672
     20 C          62.4042   83.4860   13.8108 C.ar    1  UNL1        0.0539
     21 C          63.0933   84.3983   12.8398 C.ar    1  UNL1        0.0535
     22 C          63.6600   83.8469   11.5651 C.ar    1  UNL1        0.0172
     23 C          63.5376   82.3831   11.2615 C.ar    1  UNL1        0.0340
     24 C          62.8486   81.4707   12.2325 C.ar    1  UNL1        0.1739
     25 F          62.7262   80.0068   11.9288 F       1  UNL1       -0.2010
     26 C          60.2572   80.5198   14.1346 C.3     1  UNL1        0.2526
     27 O          61.5928   81.1098   14.4781 O.3     1  UNL1       -0.4691
@<TRIPOS>BOND
     1    26    27    1
     2    27    19    1
     3    19    20   ar
     4    20    21   ar
     5    21    15    1
     6    15    16   am
     7    16    17    2
     8    16     1    1
     9     1     2    1
    10     2     3    1
    11     3     4    2
    12     4     9    1
    13     9    10    1
    14    10    11    1
    15    11    12    1
    16    12    13    1
    17    13    14    1
    18     4     5    1
    19     5     6    1
    20     6     7    2
    21     6     8    1
    22    21    22   ar
    23    22    23   ar
    24    23    24   ar
    25    24    25    1
    26    24    19   ar
    27     8     2    2
    28    14     9    1
    29    15    18    1
@<TRIPOS>MOLECULE
*****
 27 29 0 0 0
SMALL
GASTEIGER

@<TRIPOS>ATOM
      1 C          63.0959   90.6118   13.0537 C.3     1  UNL1        0.2066
      2 C          64.4346   91.2867   13.1038 C.2     1  UNL1        0.3580
      3 N          64.8102   92.2867   12.0508 N.2     1  UNL1       -0.0039
      4 C          66.1489   92.9615   12.1008 C.2     1  UNL1        0.3159
      5 C          67.1119   92.6364   13.2038 C.3     1  UNL1        0.2333
      6 C          66.7363   91.6364   14.2569 C.2     1  UNL1        0.3644
      7 O          67.6994   91.3112   15.3600 O.2     1  UNL1       -0.2422
      8 N          65.3977   90.9615   14.2069 N.am    1  UNL1        0.0289
      9 N          66.5245   93.9616   11.0477 N.pl3   1  UNL1       -0.1888
     10 C          67.1936   93.5057    9.7851 C.3     1  UNL1        0.2343
     11 C          67.5692   94.5057    8.7321 C.3     1  UNL1        0.1929
     12 O          67.2755   95.9617    8.9417 O.3     1  UNL1       -0.3449
     13 C          66.6064   96.4176   10.2043 C.3     1  UNL1        0.1929
     14 C          66.2308   95.4176   11.2573 C.3     1  UNL1        0.2343
     15 N          61.8593   88.5895   11.9902 N.am    1  UNL1       -0.2833
     16 C          62.6980   89.8242   11.8408 C.2     1  UNL1        0.2387
     17 O          63.1387   90.2711   10.4784 O.2     1  UNL1       -0.2741
     18 H          61.5700   88.2961   12.8843 H       1  UNL1        0.1549
     19 C          61.9806   85.9589    9.0211 C.ar    1  UNL1        0.1672
     20 C          62.3785   86.7465   10.2341 C.ar    1  UNL1        0.0539
     21 C          61.4613   87.8019   10.7772 C.ar    1  UNL1        0.0535
     22 C          60.1462   88.0696   10.1074 C.ar    1  UNL1        0.0172
     23 C          59.7483   87.2820    8.8944 C.ar    1  UNL1        0.0340
     24 C          60.6655   86.2266    8.3513 C.ar    1  UNL1        0.1739
     25 F          60.2676   85.4390    7.1383 F       1  UNL1       -0.2010
     26 C          63.6077   83.9722    9.4153 C.3     1  UNL1        0.2526
     27 O          62.8979   84.9036    8.4780 O.3     1  UNL1       -0.4691
@<TRIPOS>BOND
     1    26    27    1
     2    27    19    1
     3    19    20   ar
     4    20    21   ar
     5    21    15    1
     6    15    16   am
     7    16    17    2
     8    16     1    1
     9     1     2    1
    10     2     3    1
    11     3     4    2
    12     4     9    1
    13     9    10    1
    14    10    11    1
    15    11    12    1
    16    12    13    1
    17    13    14    1
    18     4     5    1
    19     5     6    1
    20     6     7    2
    21     6     8    1
    22    21    22   ar
    23    22    23   ar
    24    23    24   ar
    25    24    25    1
    26    24    19   ar
    27     8     2    2
    28    14     9    1
    29    15    18    1
@<TRIPOS>MOLECULE
*****
 27 29 0 0 0
SMALL
GASTEIGER

@<TRIPOS>ATOM
      1 C          63.9700   83.4465   10.2716 C.3     1  UNL1        0.2066
      2 C          63.8209   83.2569   11.7521 C.2     1  UNL1        0.3580
      3 N          63.7207   84.4506   12.6548 N.2     1  UNL1       -0.0039
      4 C          63.5716   84.2610   14.1352 C.2     1  UNL1        0.3159
      5 C          63.5227   82.8776   14.7130 C.3     1  UNL1        0.2333
      6 C          63.6228   81.6838   13.8103 C.2     1  UNL1        0.3644
      7 O          63.5739   80.3004   14.3881 O.2     1  UNL1       -0.2422
      8 N          63.7719   81.8734   12.3298 N.am    1  UNL1        0.0289
      9 N          63.4714   85.4548   15.0380 N.pl3   1  UNL1       -0.1888
     10 C          64.0656   86.7659   14.6163 C.3     1  UNL1        0.2343
     11 C          63.9654   87.9596   15.5190 C.3     1  UNL1        0.1929
     12 O          63.2710   87.8422   16.8434 O.3     1  UNL1       -0.3449
     13 C          62.6768   86.5311   17.2651 C.3     1  UNL1        0.1929
     14 C          62.7770   85.3374   16.3624 C.3     1  UNL1        0.2343
     15 N          62.0952   85.2450   10.3004 N.am    1  UNL1       -0.2833
     16 C          63.1753   84.5060    9.5674 C.2     1  UNL1        0.2387
     17 O          63.4608   84.8266    8.1301 O.2     1  UNL1       -0.2741
     18 H          61.9079   85.0346   11.2437 H       1  UNL1        0.1549
     19 C          60.4790   88.7637    9.4307 C.ar    1  UNL1        0.1672
     20 C          61.2735   87.7041   10.1349 C.ar    1  UNL1        0.0539
     21 C          61.3006   86.3045    9.5961 C.ar    1  UNL1        0.0535
     22 C          60.5331   85.9644    8.3531 C.ar    1  UNL1        0.0172
     23 C          59.7385   87.0240    7.6489 C.ar    1  UNL1        0.0340
     24 C          59.7114   88.4236    8.1877 C.ar    1  UNL1        0.1739
     25 F          58.9168   89.4832    7.4834 F       1  UNL1       -0.2010
     26 C          59.7335   90.4593   11.2526 C.3     1  UNL1        0.2526
     27 O          60.4519   90.1633    9.9696 O.3     1  UNL1       -0.4691
@<TRIPOS>BOND
     1    26    27    1
     2    27    19    1
     3    19    20   ar
     4    20    21   ar
     5    21    15    1
     6    15    16   am
     7    16    17    2
     8    16     1    1
     9     1     2    1
    10     2     3    1
    11     3     4    2
    12     4     9    1
    13     9    10    1
    14    10    11    1
    15    11    12    1
    16    12    13    1
    17    13    14    1
    18     4     5    1
    19     5     6    1
    20     6     7    2
    21     6     8    1
    22    21    22   ar
    23    22    23   ar
    24    23    24   ar
    25    24    25    1
    26    24    19   ar
    27     8     2    2
    28    14     9    1
    29    15    18    1
@<TRIPOS>MOLECULE
*****
 27 29 0 0 0
SMALL
GASTEIGER

@<TRIPOS>ATOM
      1 C          63.7462   84.6905   14.5205 C.3     1  UNL1        0.2066
      2 C          63.5432   84.5649   13.0396 C.2     1  UNL1        0.3580
      3 N          62.6036   85.4942   12.3300 N.2     1  UNL1       -0.0039
      4 C          62.4006   85.3687   10.8491 C.2     1  UNL1        0.3159
      5 C          63.1371   84.3139   10.0778 C.3     1  UNL1        0.2333
      6 C          64.0767   83.3845   10.7875 C.2     1  UNL1        0.3644
      7 O          64.8131   82.3296   10.0162 O.2     1  UNL1       -0.2422
      8 N          64.2797   83.5100   12.2683 N.am    1  UNL1        0.0289
      9 N          61.4610   86.2981   10.1394 N.pl3   1  UNL1       -0.1888
     10 C          61.0091   87.5623   10.8082 C.3     1  UNL1        0.2343
     11 C          60.0695   88.4916   10.0986 C.3     1  UNL1        0.1929
     12 O          59.5819   88.1567    8.7202 O.3     1  UNL1       -0.3449
     13 C          60.0339   86.8924    8.0514 C.3     1  UNL1        0.1929
     14 C          60.9734   85.9631    8.7610 C.3     1  UNL1        0.2343
     15 N          63.9143   87.2733   14.2958 N.am    1  UNL1       -0.2833
     16 C          63.8190   86.0476   15.1551 C.2     1  UNL1        0.2387
     17 O          63.7964   86.1791   16.6492 O.2     1  UNL1       -0.2741
     18 H          63.9291   87.1871   13.3152 H       1  UNL1        0.1549
     19 C          64.8286   91.0882   14.8962 C.ar    1  UNL1        0.1672
     20 C          64.7558   89.7311   14.2615 C.ar    1  UNL1        0.0539
     21 C          63.9870   88.6305   14.9305 C.ar    1  UNL1        0.0535
     22 C          63.2910   88.8870   16.2342 C.ar    1  UNL1        0.0172
     23 C          63.3637   90.2442   16.8689 C.ar    1  UNL1        0.0340
     24 C          64.1325   91.3448   16.1999 C.ar    1  UNL1        0.1739
     25 F          64.2053   92.7020   16.8346 F       1  UNL1       -0.2010
     26 C          67.0959   92.1383   14.1844 C.3     1  UNL1        0.2526
     27 O          65.5974   92.1888   14.2272 O.3     1  UNL1       -0.4691
@<TRIPOS>BOND
     1    26    27    1
     2    27    19    1
     3    19    20   ar
     4    20    21   ar
     5    21    15    1
     6    15    16   am
     7    16    17    2
     8    16     1    1
     9     1     2    1
    10     2     3    1
    11     3     4    2
    12     4     9    1
    13     9    10    1
    14    10    11    1
    15    11    12    1
    16    12    13    1
    17    13    14    1
    18     4     5    1
    19     5     6    1
    20     6     7    2
    21     6     8    1
    22    21    22   ar
    23    22    23   ar
    24    23    24   ar
    25    24    25    1
    26    24    19   ar
    27     8     2    2
    28    14     9    1
    29    15    18    1
@<TRIPOS>MOLECULE
*****
 27 29 0 0 0
SMALL
GASTEIGER

@<TRIPOS>ATOM
      1 C          61.7903   88.6097   10.8171 C.3     1  UNL1        0.2066
      2 C          62.5378   89.4209   11.8336 C.2     1  UNL1        0.3580
      3 N          63.4607   90.5160   11.3877 N.2     1  UNL1       -0.0039
      4 C          64.2082   91.3271   12.4042 C.2     1  UNL1        0.3159
      5 C          64.0327   91.0432   13.8666 C.3     1  UNL1        0.2333
      6 C          63.1097   89.9481   14.3125 C.2     1  UNL1        0.3644
      7 O          62.9342   89.6642   15.7749 O.2     1  UNL1       -0.2422
      8 N          62.3622   89.1369   13.2960 N.am    1  UNL1        0.0289
      9 N          65.1312   92.4223   11.9583 N.pl3   1  UNL1       -0.1888
     10 C          65.3990   92.6288   10.4969 C.3     1  UNL1        0.2343
     11 C          66.3220   93.7239   10.0511 C.3     1  UNL1        0.1929
     12 O          66.9772   94.6125   11.0666 O.3     1  UNL1       -0.3449
     13 C          66.7094   94.4059   12.5279 C.3     1  UNL1        0.1929
     14 C          65.7865   93.3108   12.9738 C.3     1  UNL1        0.2343
     15 N          62.7699   86.4288   11.8339 N.am    1  UNL1       -0.2833
     16 C          61.8760   87.1124   10.8422 C.2     1  UNL1        0.2387
     17 O          61.0677   86.2985    9.8754 O.2     1  UNL1       -0.2741
     18 H          63.3004   86.9629   12.4684 H       1  UNL1        0.1549
     19 C          62.4839   82.6769   13.0955 C.ar    1  UNL1        0.1672
     20 C          62.3982   84.1742   13.0704 C.ar    1  UNL1        0.0539
     21 C          62.8556   84.9314   11.8590 C.ar    1  UNL1        0.0535
     22 C          63.3986   84.1913   10.6727 C.ar    1  UNL1        0.0172
     23 C          63.4843   82.6940   10.6978 C.ar    1  UNL1        0.0340
     24 C          63.0269   81.9368   11.9092 C.ar    1  UNL1        0.1739
     25 F          63.1126   80.4394   11.9343 F       1  UNL1       -0.2010
     26 C          60.9311   80.9022   14.1860 C.3     1  UNL1        0.2526
     27 O          62.0265   81.9197   14.3069 O.3     1  UNL1       -0.4691
@<TRIPOS>BOND
     1    26    27    1
     2    27    19    1
     3    19    20   ar
     4    20    21   ar
     5    21    15    1
     6    15    16   am
     7    16    17    2
     8    16     1    1
     9     1     2    1
    10     2     3    1
    11     3     4    2
    12     4     9    1
    13     9    10    1
    14    10    11    1
    15    11    12    1
    16    12    13    1
    17    13    14    1
    18     4     5    1
    19     5     6    1
    20     6     7    2
    21     6     8    1
    22    21    22   ar
    23    22    23   ar
    24    23    24   ar
    25    24    25    1
    26    24    19   ar
    27     8     2    2
    28    14     9    1
    29    15    18    1
@<TRIPOS>MOLECULE
*****
 27 29 0 0 0
SMALL
GASTEIGER

@<TRIPOS>ATOM
      1 C          63.7874   84.6057   14.1274 C.3     1  UNL1        0.2066
      2 C          63.6791   85.8963   14.8843 C.2     1  UNL1        0.3580
      3 N          64.0365   87.1903   14.2152 N.2     1  UNL1       -0.0039
      4 C          63.9282   88.4809   14.9720 C.2     1  UNL1        0.3159
      5 C          63.4625   88.4774   16.3979 C.3     1  UNL1        0.2333
      6 C          63.1051   87.1833   17.0670 C.2     1  UNL1        0.3644
      7 O          62.6394   87.1798   18.4928 O.2     1  UNL1       -0.2422
      8 N          63.2134   85.8927   16.3102 N.am    1  UNL1        0.0289
      9 N          64.2856   89.7750   14.3029 N.pl3   1  UNL1       -0.1888
     10 C          65.3520   90.6525   14.8883 C.3     1  UNL1        0.2343
     11 C          65.7094   91.9465   14.2192 C.3     1  UNL1        0.1929
     12 O          65.0003   92.3630   12.9647 O.3     1  UNL1       -0.3449
     13 C          63.9339   91.4855   12.3793 C.3     1  UNL1        0.1929
     14 C          63.5766   90.1915   13.0484 C.3     1  UNL1        0.2343
     15 N          62.8467   85.7667   12.0021 N.am    1  UNL1       -0.2833
     16 C          63.3117   84.5270   12.7071 C.2     1  UNL1        0.2387
     17 O          63.3009   83.2086   11.9917 O.2     1  UNL1       -0.2741
     18 H          62.8537   86.6320   12.4716 H       1  UNL1        0.1549
     19 C          60.5694   86.1987    8.7807 C.ar    1  UNL1        0.1672
     20 C          61.0452   86.2774   10.2010 C.ar    1  UNL1        0.0539
     21 C          62.3709   85.6879   10.5817 C.ar    1  UNL1        0.0535
     22 C          63.2209   85.0197    9.5420 C.ar    1  UNL1        0.0172
     23 C          62.7451   84.9409    8.1217 C.ar    1  UNL1        0.0340
     24 C          61.4194   85.5304    7.7410 C.ar    1  UNL1        0.1739
     25 F          60.9436   85.4516    6.3206 F       1  UNL1       -0.2010
     26 C          59.1879   88.0154    7.5393 C.3     1  UNL1        0.2526
     27 O          59.2437   86.7882    8.4000 O.3     1  UNL1       -0.4691
@<TRIPOS>BOND
     1    26    27    1
     2    27    19    1
     3    19    20   ar
     4    20    21   ar
     5    21    15    1
     6    15    16   am
     7    16    17    2
     8    16     1    1
     9     1     2    1
    10     2     3    1
    11     3     4    2
    12     4     9    1
    13     9    10    1
    14    10    11    1
    15    11    12    1
    16    12    13    1
    17    13    14    1
    18     4     5    1
    19     5     6    1
    20     6     7    2
    21     6     8    1
    22    21    22   ar
    23    22    23   ar
    24    23    24   ar
    25    24    25    1
    26    24    19   ar
    27     8     2    2
    28    14     9    1
    29    15    18    1
