@<TRIPOS>MOLECULE
*****
 34 38 0 0 0
SMALL
GASTEIGER

@<TRIPOS>ATOM
      1 C          62.7551   86.6695   11.8256 C.2     1  UNL1        0.2506
      2 O          63.4507   87.3962   12.9382 O.2     1  UNL1       -0.2699
      3 N          61.7148   87.3730   11.0054 N.am    1  UNL1       -0.2724
      4 C          61.0191   86.6463    9.8927 C.3     1  UNL1        0.1231
      5 C          59.9788   87.3500    9.0725 C.3     1  UNL1        0.1351
      6 C          59.2831   86.6233    7.9599 C.3     1  UNL1        0.0339
      7 O          59.6342   88.7802    9.3650 O.3     1  UNL1       -0.3527
      8 C          60.3298   89.5069   10.4776 C.3     1  UNL1        0.1621
      9 C          61.3701   88.8034   11.2978 C.3     1  UNL1        0.1097
     10 C          63.8580   81.8743   13.4960 C.3     1  UNL1        0.0327
     11 C          63.6512   82.8417   12.3684 C.ar    1  UNL1       -0.0023
     12 C          63.7890   82.3787   10.9483 C.ar    1  UNL1       -0.0027
     13 C          63.5822   83.3459    9.8206 C.ar    1  UNL1       -0.0001
     14 C          63.2375   84.7761   10.1131 C.ar    1  UNL1        0.0061
     15 C          63.0997   85.2392   11.5332 C.ar    1  UNL1        0.0726
     16 C          63.3065   84.2719   12.6608 C.ar    1  UNL1        0.1032
     17 N          63.1687   84.7349   14.0809 N.ar    1  UNL1       -0.1480
     18 N          61.9160   84.6916   14.9048 N.ar    1  UNL1       -0.1447
     19 C          62.2324   85.2524   16.2595 C.ar    1  UNL1        0.1446
     20 C          63.6808   85.6424   16.2729 C.ar    1  UNL1        0.1446
     21 N          64.2594   85.3226   14.9264 N.ar    1  UNL1       -0.1447
     22 C          62.0658   89.5301   12.4104 C.3     1  UNL1        0.0510
     23 C          63.1716   90.4948   12.1000 C.ar    1  UNL1        0.0086
     24 C          64.1482   90.8856   13.1694 C.ar    1  UNL1        0.0189
     25 C          65.2541   91.8503   12.8590 C.ar    1  UNL1        0.1027
     26 C          65.3834   92.4243   11.4792 C.ar    1  UNL1        0.0232
     27 C          64.4067   92.0335   10.4098 C.ar    1  UNL1        0.0309
     28 C          63.3009   91.0688   10.7202 C.ar    1  UNL1        0.1363
     29 F          62.3244   90.6781    9.6508 F       1  UNL1       -0.2045
     30 N          66.2307   92.2411   13.9283 N.ar    1  UNL1       -0.1478
     31 N          67.7228   92.2911   13.7841 N.ar    1  UNL1       -0.1447
     32 C          68.3009   92.7313   15.0963 C.ar    1  UNL1        0.1446
     33 C          67.1660   92.9534   16.0517 C.ar    1  UNL1        0.1446
     34 N          65.8865   92.6504   15.3298 N.ar    1  UNL1       -0.1447
@<TRIPOS>BOND
     1    10    11    1
     2    11    12   ar
     3    12    13   ar
     4    13    14   ar
     5    14    15   ar
     6    15     1    1
     7     1     2    2
     8     1     3   am
     9     3     4    1
    10     4     5    1
    11     5     6    1
    12     5     7    1
    13     7     8    1
    14     8     9    1
    15     9    22    1
    16    22    23    1
    17    23    24   ar
    18    24    25   ar
    19    25    30    1
    20    30    31   ar
    21    31    32   ar
    22    32    33   ar
    23    33    34   ar
    24    25    26   ar
    25    26    27   ar
    26    27    28   ar
    27    28    29    1
    28    15    16   ar
    29    16    17    1
    30    17    18   ar
    31    18    19   ar
    32    19    20   ar
    33    20    21   ar
    34    16    11   ar
    35    21    17   ar
    36     9     3    1
    37    28    23   ar
    38    34    30   ar
@<TRIPOS>MOLECULE
*****
 34 38 0 0 0
SMALL
GASTEIGER

@<TRIPOS>ATOM
      1 C          62.7988   87.2145   11.8363 C.2     1  UNL1        0.2506
      2 O          63.4300   87.4283   13.1801 O.2     1  UNL1       -0.2699
      3 N          61.9833   88.3058   11.2086 N.am    1  UNL1       -0.2724
      4 C          61.3521   88.0920    9.8648 C.3     1  UNL1        0.1231
      5 C          60.5366   89.1834    9.2371 C.3     1  UNL1        0.1351
      6 C          59.9054   88.9697    7.8933 C.3     1  UNL1        0.0339
      7 O          60.3525   90.4885    9.9532 O.3     1  UNL1       -0.3527
      8 C          60.9837   90.7023   11.2970 C.3     1  UNL1        0.1621
      9 C          61.7991   89.6110   11.9247 C.3     1  UNL1        0.1097
     10 C          63.6119   82.0840   11.9697 C.3     1  UNL1        0.0327
     11 C          63.3895   83.3442   11.1869 C.ar    1  UNL1       -0.0023
     12 C          63.3513   83.2992    9.6881 C.ar    1  UNL1       -0.0027
     13 C          63.1290   84.5593    8.9053 C.ar    1  UNL1       -0.0001
     14 C          62.9448   85.8643    9.6214 C.ar    1  UNL1        0.0061
     15 C          62.9830   85.9093   11.1202 C.ar    1  UNL1        0.0726
     16 C          63.2053   84.6493   11.9030 C.ar    1  UNL1        0.1032
     17 N          63.2435   84.6943   13.4018 N.ar    1  UNL1       -0.1480
     18 N          62.0594   84.5959   14.3173 N.ar    1  UNL1       -0.1447
     19 C          62.5566   84.6864   15.7297 C.ar    1  UNL1        0.1446
     20 C          64.0480   84.8407   15.6870 C.ar    1  UNL1        0.1446
     21 N          64.4726   84.8455   14.2483 N.ar    1  UNL1       -0.1447
     22 C          62.4304   89.8247   13.2685 C.3     1  UNL1        0.0510
     23 C          63.7357   90.5558   13.3762 C.ar    1  UNL1        0.0086
     24 C          64.2340   91.3748   12.2225 C.ar    1  UNL1        0.0189
     25 C          65.5394   92.1059   12.3302 C.ar    1  UNL1        0.1027
     26 C          66.3464   92.0181   13.5916 C.ar    1  UNL1        0.0232
     27 C          65.8480   91.1991   14.7453 C.ar    1  UNL1        0.0309
     28 C          64.5427   90.4680   14.6376 C.ar    1  UNL1        0.1363
     29 F          64.0444   89.6490   15.7912 F       1  UNL1       -0.2045
     30 N          66.0377   92.9249   11.1765 N.ar    1  UNL1       -0.1478
     31 N          67.1202   92.5289   10.2167 N.ar    1  UNL1       -0.1447
     32 C          67.2926   93.6428    9.2271 C.ar    1  UNL1        0.1446
     33 C          66.3164   94.7273    9.5753 C.ar    1  UNL1        0.1446
     34 N          65.5409   94.2836   10.7801 N.ar    1  UNL1       -0.1447
@<TRIPOS>BOND
     1    10    11    1
     2    11    12   ar
     3    12    13   ar
     4    13    14   ar
     5    14    15   ar
     6    15     1    1
     7     1     2    2
     8     1     3   am
     9     3     4    1
    10     4     5    1
    11     5     6    1
    12     5     7    1
    13     7     8    1
    14     8     9    1
    15     9    22    1
    16    22    23    1
    17    23    24   ar
    18    24    25   ar
    19    25    30    1
    20    30    31   ar
    21    31    32   ar
    22    32    33   ar
    23    33    34   ar
    24    25    26   ar
    25    26    27   ar
    26    27    28   ar
    27    28    29    1
    28    15    16   ar
    29    16    17    1
    30    17    18   ar
    31    18    19   ar
    32    19    20   ar
    33    20    21   ar
    34    16    11   ar
    35    21    17   ar
    36     9     3    1
    37    28    23   ar
    38    34    30   ar
@<TRIPOS>MOLECULE
*****
 34 38 0 0 0
SMALL
GASTEIGER

@<TRIPOS>ATOM
      1 C          62.7001   88.6716   11.6272 C.2     1  UNL1        0.2506
      2 O          62.5511   90.1638   11.5942 O.2     1  UNL1       -0.2699
      3 N          63.3791   88.0112   12.7904 N.am    1  UNL1       -0.2724
      4 C          63.5281   86.5190   12.8234 C.3     1  UNL1        0.1231
      5 C          64.2071   85.8587   13.9866 C.3     1  UNL1        0.1351
      6 C          64.3561   84.3665   14.0197 C.3     1  UNL1        0.0339
      7 O          64.7371   86.6906   15.1167 O.3     1  UNL1       -0.3527
      8 C          64.5880   88.1828   15.0836 C.3     1  UNL1        0.1621
      9 C          63.9091   88.8431   13.9205 C.3     1  UNL1        0.1097
     10 C          58.7700   87.2650    8.5327 C.3     1  UNL1        0.0327
     11 C          60.2051   87.1364    8.9499 C.ar    1  UNL1       -0.0023
     12 C          61.1103   86.1760    8.2369 C.ar    1  UNL1       -0.0027
     13 C          62.5453   86.0474    8.6540 C.ar    1  UNL1       -0.0001
     14 C          63.0752   86.8793    9.7841 C.ar    1  UNL1        0.0061
     15 C          62.1701   87.8397   10.4971 C.ar    1  UNL1        0.0726
     16 C          60.7351   87.9683   10.0800 C.ar    1  UNL1        0.1032
     17 N          59.8299   88.9287   10.7929 N.ar    1  UNL1       -0.1480
     18 N          58.9877   88.6196   11.9950 N.ar    1  UNL1       -0.1447
     19 C          58.2453   89.8668   12.3740 C.ar    1  UNL1        0.1446
     20 C          58.6288   90.9466   11.4061 C.ar    1  UNL1        0.1446
     21 N          59.6081   90.3669   10.4290 N.ar    1  UNL1       -0.1447
     22 C          63.7600   90.3353   13.8875 C.3     1  UNL1        0.0510
     23 C          64.9781   91.2104   13.8639 C.ar    1  UNL1        0.0086
     24 C          65.6190   91.5685   12.5559 C.ar    1  UNL1        0.0189
     25 C          66.8371   92.4436   12.5322 C.ar    1  UNL1        0.1027
     26 C          67.4143   92.9605   13.8166 C.ar    1  UNL1        0.0232
     27 C          66.7733   92.6023   15.1247 C.ar    1  UNL1        0.0309
     28 C          65.5553   91.7272   15.1483 C.ar    1  UNL1        0.1363
     29 F          64.9144   91.3691   16.4563 F       1  UNL1       -0.2045
     30 N          67.4780   92.8018   11.2242 N.ar    1  UNL1       -0.1478
     31 N          68.4664   91.9643   10.4681 N.ar    1  UNL1       -0.1447
     32 C          68.8423   92.7052    9.2192 C.ar    1  UNL1        0.1446
     33 C          68.0862   94.0007    9.2035 C.ar    1  UNL1        0.1446
     34 N          67.2431   94.0603   10.4426 N.ar    1  UNL1       -0.1447
@<TRIPOS>BOND
     1    10    11    1
     2    11    12   ar
     3    12    13   ar
     4    13    14   ar
     5    14    15   ar
     6    15     1    1
     7     1     2    2
     8     1     3   am
     9     3     4    1
    10     4     5    1
    11     5     6    1
    12     5     7    1
    13     7     8    1
    14     8     9    1
    15     9    22    1
    16    22    23    1
    17    23    24   ar
    18    24    25   ar
    19    25    30    1
    20    30    31   ar
    21    31    32   ar
    22    32    33   ar
    23    33    34   ar
    24    25    26   ar
    25    26    27   ar
    26    27    28   ar
    27    28    29    1
    28    15    16   ar
    29    16    17    1
    30    17    18   ar
    31    18    19   ar
    32    19    20   ar
    33    20    21   ar
    34    16    11   ar
    35    21    17   ar
    36     9     3    1
    37    28    23   ar
    38    34    30   ar
