@<TRIPOS>MOLECULE
*****
 37 40 0 0 0
SMALL
GASTEIGER

@<TRIPOS>ATOM
      1 C          62.0920   79.1590   11.7555 C.3     1  UNL1        0.0334
      2 C          62.4382   80.4469   12.4422 C.ar    1  UNL1        0.0071
      3 C          62.4307   81.7335   11.6711 C.ar    1  UNL1        0.0155
      4 C          62.7769   83.0214   12.3578 C.ar    1  UNL1        0.0659
      5 C          63.1305   83.0227   13.8155 C.ar    1  UNL1        0.0295
      6 C          63.1380   81.7361   14.5865 C.ar    1  UNL1        0.0315
      7 C          62.7918   80.4482   13.8999 C.ar    1  UNL1        0.1363
      8 F          62.7993   79.1616   14.6710 F       1  UNL1       -0.2045
      9 C          63.4258   84.4368   14.2196 C.ar    1  UNL1        0.0875
     10 C          63.2546   85.3094   13.0116 C.ar    1  UNL1        0.0925
     11 N          62.8536   84.4347   11.8609 N.ar    1  UNL1       -0.2878
     12 C          62.5777   84.8928   10.4595 C.ar    1  UNL1        0.1755
     13 N          61.4103   85.7924   10.1807 N.ar    1  UNL1       -0.2242
     14 C          61.1343   86.2506    8.7793 C.ar    1  UNL1        0.1007
     15 C          62.0258   85.8090    7.6567 C.ar    1  UNL1        0.0231
     16 C          63.1933   84.9094    7.9355 C.ar    1  UNL1        0.0344
     17 C          63.4692   84.4513    9.3369 C.ar    1  UNL1        0.1744
     18 F          64.6367   83.5516    9.6157 F       1  UNL1       -0.2010
     19 C          63.4502   86.7959   12.9629 C.ar    1  UNL1        0.0981
     20 C          64.2472   87.4829   14.0319 C.ar    1  UNL1        0.0220
     21 C          64.4427   88.9693   13.9831 C.ar    1  UNL1        0.0231
     22 C          63.8413   89.7686   12.8654 C.ar    1  UNL1        0.1410
     23 C          63.0443   89.0816   11.7964 C.ar    1  UNL1        0.1187
     24 N          62.8488   87.5952   11.8451 N.ar    1  UNL1       -0.2409
     25 S          64.0368   91.2551   12.8167 S.O2    1  UNL1        0.0619
     26 O          64.1194   91.1952   11.3201 O.2     1  UNL1       -0.1529
     27 O          63.9542   91.3149   14.3132 O.2     1  UNL1       -0.1529
     28 N          64.2324   92.7414   12.7680 N.3     1  UNL1       -0.1723
     29 H          63.9687   93.1033   13.6845 H       1  UNL1        0.1491
     30 C          65.5835   93.3102   12.4503 C.3     1  UNL1        0.1701
     31 C          65.7654   94.1819   11.2433 C.3     1  UNL1        0.0278
     32 C          66.7528   93.0071   13.3396 C.3     1  UNL1        0.4118
     33 F          67.9222   92.7040   14.2289 F       1  UNL1       -0.1685
     34 F          67.2957   92.0663   12.3051 F       1  UNL1       -0.1685
     35 F          66.2099   93.9479   14.3741 F       1  UNL1       -0.1685
     36 C          63.8225   84.8973   15.5909 C.1     1  UNL1        0.1020
     37 N          64.2193   85.3579   16.9622 N.1     1  UNL1       -0.1908
@<TRIPOS>BOND
     1     1     2    1
     2     2     3   ar
     3     3     4   ar
     4     4     5   ar
     5     5     6   ar
     6     6     7   ar
     7     7     8    1
     8     5     9   ar
     9     9    36    1
    10    36    37    3
    11     9    10   ar
    12    10    19    1
    13    19    20   ar
    14    20    21   ar
    15    21    22   ar
    16    22    25    1
    17    25    26    2
    18    25    27    2
    19    25    28    1
    20    28    30    1
    21    30    31    1
    22    30    32    1
    23    32    33    1
    24    32    34    1
    25    32    35    1
    26    22    23   ar
    27    23    24   ar
    28    10    11   ar
    29    11    12    1
    30    12    13   ar
    31    13    14   ar
    32    14    15   ar
    33    15    16   ar
    34    16    17   ar
    35    17    18    1
    36     7     2   ar
    37    24    19   ar
    38    17    12   ar
    39    11     4   ar
    40    28    29    1
@<TRIPOS>MOLECULE
*****
 37 40 0 0 0
SMALL
GASTEIGER

@<TRIPOS>ATOM
      1 C          62.2122   79.2446   14.2253 C.3     1  UNL1        0.0334
      2 C          62.4134   80.4783   13.3962 C.ar    1  UNL1        0.0071
      3 C          62.5043   81.8208   14.0590 C.ar    1  UNL1        0.0155
      4 C          62.7054   83.0545   13.2299 C.ar    1  UNL1        0.0659
      5 C          62.8156   82.9458   11.7379 C.ar    1  UNL1        0.0295
      6 C          62.7246   81.6033   11.0751 C.ar    1  UNL1        0.0315
      7 C          62.5235   80.3695   11.9042 C.ar    1  UNL1        0.1363
      8 F          62.4326   79.0270   11.2413 F       1  UNL1       -0.2045
      9 C          63.0100   84.3267   11.1856 C.ar    1  UNL1        0.0875
     10 C          63.0200   85.2890   12.3362 C.ar    1  UNL1        0.0925
     11 N          62.8317   84.5028   13.5997 N.ar    1  UNL1       -0.2878
     12 C          62.7791   85.0658   14.9890 C.ar    1  UNL1        0.1755
     13 N          61.4576   85.2467   15.6753 N.ar    1  UNL1       -0.2242
     14 C          61.4049   85.8097   17.0646 C.ar    1  UNL1        0.1007
     15 C          62.6736   86.1919   17.7676 C.ar    1  UNL1        0.0231
     16 C          63.9951   86.0111   17.0812 C.ar    1  UNL1        0.0344
     17 C          64.0478   85.4480   15.6920 C.ar    1  UNL1        0.1744
     18 F          65.3693   85.2672   15.0056 F       1  UNL1       -0.2010
     19 C          63.1886   86.7765   12.2402 C.ar    1  UNL1        0.0981
     20 C          62.6716   87.5140   11.0408 C.ar    1  UNL1        0.0220
     21 C          62.8402   89.0014   10.9448 C.ar    1  UNL1        0.0231
     22 C          63.5259   89.7512   12.0483 C.ar    1  UNL1        0.1410
     23 C          64.0429   89.0137   13.2477 C.ar    1  UNL1        0.1187
     24 N          63.8743   87.5263   13.3437 N.ar    1  UNL1       -0.2409
     25 S          63.6945   91.2387   11.9522 S.O2    1  UNL1        0.0619
     26 O          63.6254   91.3430   13.4471 O.2     1  UNL1       -0.1529
     27 O          63.7637   91.1343   10.4575 O.2     1  UNL1       -0.1529
     28 N          63.8632   92.7260   11.8562 N.3     1  UNL1       -0.1723
     29 H          63.5342   93.1173   12.7388 H       1  UNL1        0.1491
     30 C          65.2203   93.3121   11.6018 C.3     1  UNL1        0.1701
     31 C          65.3667   94.5006   10.6984 C.3     1  UNL1        0.0278
     32 C          66.4310   92.7097   12.2507 C.3     1  UNL1        0.4118
     33 F          67.6418   92.1073   12.8998 F       1  UNL1       -0.1685
     34 F          66.0339   93.3231   13.5608 F       1  UNL1       -0.1685
     35 F          66.8280   92.0964   10.9407 F       1  UNL1       -0.1685
     36 C          63.1669   84.6829    9.7370 C.1     1  UNL1        0.1020
     37 N          63.3238   85.0392    8.2883 N.1     1  UNL1       -0.1908
@<TRIPOS>BOND
     1     1     2    1
     2     2     3   ar
     3     3     4   ar
     4     4     5   ar
     5     5     6   ar
     6     6     7   ar
     7     7     8    1
     8     5     9   ar
     9     9    36    1
    10    36    37    3
    11     9    10   ar
    12    10    19    1
    13    19    20   ar
    14    20    21   ar
    15    21    22   ar
    16    22    25    1
    17    25    26    2
    18    25    27    2
    19    25    28    1
    20    28    30    1
    21    30    31    1
    22    30    32    1
    23    32    33    1
    24    32    34    1
    25    32    35    1
    26    22    23   ar
    27    23    24   ar
    28    10    11   ar
    29    11    12    1
    30    12    13   ar
    31    13    14   ar
    32    14    15   ar
    33    15    16   ar
    34    16    17   ar
    35    17    18    1
    36     7     2   ar
    37    24    19   ar
    38    17    12   ar
    39    11     4   ar
    40    28    29    1
@<TRIPOS>MOLECULE
*****
 37 40 0 0 0
SMALL
GASTEIGER

@<TRIPOS>ATOM
      1 C          62.0820   79.1832   11.6047 C.3     1  UNL1        0.0334
      2 C          62.4342   80.4532   12.3210 C.ar    1  UNL1        0.0071
      3 C          62.4418   81.7561   11.5778 C.ar    1  UNL1        0.0155
      4 C          62.7941   83.0261   12.2941 C.ar    1  UNL1        0.0659
      5 C          63.1387   82.9931   13.7536 C.ar    1  UNL1        0.0295
      6 C          63.1311   81.6902   14.4968 C.ar    1  UNL1        0.0315
      7 C          62.7788   80.4203   13.7805 C.ar    1  UNL1        0.1363
      8 F          62.7712   79.1173   14.5237 F       1  UNL1       -0.2045
      9 C          63.4428   84.3957   14.1898 C.ar    1  UNL1        0.0875
     10 C          63.2861   85.2955   12.9999 C.ar    1  UNL1        0.0925
     11 N          62.8852   84.4491   11.8283 N.ar    1  UNL1       -0.2878
     12 C          62.6216   84.9394   10.4354 C.ar    1  UNL1        0.1755
     13 N          63.4952   84.4869    9.3032 N.ar    1  UNL1       -0.2242
     14 C          63.2318   84.9771    7.9103 C.ar    1  UNL1        0.1007
     15 C          62.0946   85.9200    7.6497 C.ar    1  UNL1        0.0231
     16 C          61.2210   86.3725    8.7819 C.ar    1  UNL1        0.0344
     17 C          61.4845   85.8822   10.1748 C.ar    1  UNL1        0.1744
     18 F          60.6109   86.3348   11.3071 F       1  UNL1       -0.2010
     19 C          63.4939   86.7810   12.9844 C.ar    1  UNL1        0.0981
     20 C          64.2457   87.4448   14.0998 C.ar    1  UNL1        0.0220
     21 C          64.4534   88.9303   14.0843 C.ar    1  UNL1        0.0231
     22 C          63.9094   89.7519   12.9534 C.ar    1  UNL1        0.1410
     23 C          63.1575   89.0881   11.8380 C.ar    1  UNL1        0.1187
     24 N          62.9498   87.6026   11.8535 N.ar    1  UNL1       -0.2409
     25 S          64.1171   91.2374   12.9379 S.O2    1  UNL1        0.0619
     26 O          63.6581   91.2867   11.5106 O.2     1  UNL1       -0.1529
     27 O          64.5761   91.1880   14.3651 O.2     1  UNL1       -0.1529
     28 N          64.3249   92.7228   12.9225 N.3     1  UNL1       -0.1723
     29 H          64.0224   93.0719   13.8319 H       1  UNL1        0.1491
     30 C          65.6930   93.2863   12.6756 C.3     1  UNL1        0.1701
     31 C          66.4713   93.8889   13.8074 C.3     1  UNL1        0.0278
     32 C          66.2827   93.2470   11.2970 C.3     1  UNL1        0.4118
     33 F          66.8725   93.2078    9.9183 F       1  UNL1       -0.1685
     34 F          67.3453   92.3040   11.7784 F       1  UNL1       -0.1685
     35 F          65.2201   94.1900   10.8156 F       1  UNL1       -0.1685
     36 C          63.8347   84.8234   15.5731 C.1     1  UNL1        0.1020
     37 N          64.2267   85.2511   16.9564 N.1     1  UNL1       -0.1908
@<TRIPOS>BOND
     1     1     2    1
     2     2     3   ar
     3     3     4   ar
     4     4     5   ar
     5     5     6   ar
     6     6     7   ar
     7     7     8    1
     8     5     9   ar
     9     9    36    1
    10    36    37    3
    11     9    10   ar
    12    10    19    1
    13    19    20   ar
    14    20    21   ar
    15    21    22   ar
    16    22    25    1
    17    25    26    2
    18    25    27    2
    19    25    28    1
    20    28    30    1
    21    30    31    1
    22    30    32    1
    23    32    33    1
    24    32    34    1
    25    32    35    1
    26    22    23   ar
    27    23    24   ar
    28    10    11   ar
    29    11    12    1
    30    12    13   ar
    31    13    14   ar
    32    14    15   ar
    33    15    16   ar
    34    16    17   ar
    35    17    18    1
    36     7     2   ar
    37    24    19   ar
    38    17    12   ar
    39    11     4   ar
    40    28    29    1
@<TRIPOS>MOLECULE
*****
 37 40 0 0 0
SMALL
GASTEIGER

@<TRIPOS>ATOM
      1 C          69.2070   92.1116   17.4338 C.3     1  UNL1        0.0334
      2 C          68.3373   92.2074   16.2154 C.ar    1  UNL1        0.0071
      3 C          67.2051   91.2423   16.0244 C.ar    1  UNL1        0.0155
      4 C          66.3354   91.3381   14.8060 C.ar    1  UNL1        0.0659
      5 C          66.5979   92.3990   13.7787 C.ar    1  UNL1        0.0295
      6 C          67.7301   93.3642   13.9698 C.ar    1  UNL1        0.0315
      7 C          68.5998   93.2684   15.1881 C.ar    1  UNL1        0.1363
      8 F          69.7320   94.2337   15.3792 F       1  UNL1       -0.2045
      9 C          65.5798   92.2495   12.6873 C.ar    1  UNL1        0.0875
     10 C          64.6881   91.0961   13.0401 C.ar    1  UNL1        0.0925
     11 N          65.1550   90.5327   14.3496 N.ar    1  UNL1       -0.2878
     12 C          64.5483   89.3686   15.0751 C.ar    1  UNL1        0.1755
     13 N          64.7951   87.9710   14.5895 N.ar    1  UNL1       -0.2242
     14 C          64.1883   86.8068   15.3151 C.ar    1  UNL1        0.1007
     15 C          63.3348   87.0402   16.5262 C.ar    1  UNL1        0.0231
     16 C          63.0880   88.4378   17.0118 C.ar    1  UNL1        0.0344
     17 C          63.6947   89.6020   16.2863 C.ar    1  UNL1        0.1744
     18 F          63.4479   90.9996   16.7719 F       1  UNL1       -0.2010
     19 C          63.5322   90.5941   12.2264 C.ar    1  UNL1        0.0981
     20 C          63.5298   90.7729   10.7371 C.ar    1  UNL1        0.0220
     21 C          62.3740   90.2710    9.9234 C.ar    1  UNL1        0.0231
     22 C          61.2206   89.5902   10.5990 C.ar    1  UNL1        0.1410
     23 C          61.2231   89.4114   12.0882 C.ar    1  UNL1        0.1187
     24 N          62.3789   89.9134   12.9019 N.ar    1  UNL1       -0.2409
     25 S          60.0648   89.0883    9.7852 S.O2    1  UNL1        0.0619
     26 O          60.3028   87.7007   10.3031 O.2     1  UNL1       -0.1529
     27 O          59.8269   90.4758    9.2673 O.2     1  UNL1       -0.1529
     28 N          58.9090   88.5864    8.9714 N.3     1  UNL1       -0.1723
     29 H          58.2592   89.3661    8.8708 H       1  UNL1        0.1491
     30 C          59.1430   88.0374    7.5952 C.3     1  UNL1        0.1701
     31 C          59.0193   88.9339    6.3991 C.3     1  UNL1        0.0278
     32 C          59.5007   86.5919    7.4152 C.3     1  UNL1        0.4118
     33 F          59.8583   85.1462    7.2352 F       1  UNL1       -0.1685
     34 F          58.0493   86.2223    7.4992 F       1  UNL1       -0.1685
     35 F          60.9520   86.9614    7.3312 F       1  UNL1       -0.1685
     36 C          65.4723   93.1035   11.4589 C.1     1  UNL1        0.1020
     37 N          65.3648   93.9574   10.2303 N.1     1  UNL1       -0.1908
@<TRIPOS>BOND
     1     1     2    1
     2     2     3   ar
     3     3     4   ar
     4     4     5   ar
     5     5     6   ar
     6     6     7   ar
     7     7     8    1
     8     5     9   ar
     9     9    36    1
    10    36    37    3
    11     9    10   ar
    12    10    19    1
    13    19    20   ar
    14    20    21   ar
    15    21    22   ar
    16    22    25    1
    17    25    26    2
    18    25    27    2
    19    25    28    1
    20    28    30    1
    21    30    31    1
    22    30    32    1
    23    32    33    1
    24    32    34    1
    25    32    35    1
    26    22    23   ar
    27    23    24   ar
    28    10    11   ar
    29    11    12    1
    30    12    13   ar
    31    13    14   ar
    32    14    15   ar
    33    15    16   ar
    34    16    17   ar
    35    17    18    1
    36     7     2   ar
    37    24    19   ar
    38    17    12   ar
    39    11     4   ar
    40    28    29    1
