@<TRIPOS>MOLECULE
*****
 40 44 0 0 0
SMALL
GASTEIGER

@<TRIPOS>ATOM
      1 C          59.1868   96.1356   -3.8093 C.ar    1  UNL1        0.1348
      2 C          60.3746   96.8508   -4.3817 C.ar    1  UNL1        0.0346
      3 C          61.7030   96.7713   -3.6896 C.ar    1  UNL1        0.0065
      4 C          61.8438   95.9767   -2.4253 C.ar    1  UNL1        0.0432
      5 C          60.6559   95.2614   -1.8529 C.ar    1  UNL1        0.1256
      6 N          59.3275   95.3409   -2.5450 N.ar    1  UNL1       -0.2222
      7 C          63.1722   95.8972   -1.7333 C.ar    1  UNL1        0.0850
      8 C          64.4753   95.5109   -2.3680 C.ar    1  UNL1        0.0991
      9 N          65.5392   95.5651   -1.3121 N.ar    1  UNL1       -0.2265
     10 C          64.8938   95.9848   -0.0248 C.ar    1  UNL1        0.1474
     11 C          65.4491   96.2066    1.3509 C.ar    1  UNL1        0.0332
     12 C          64.5415   96.6337    2.4662 C.ar    1  UNL1       -0.0174
     13 C          65.0969   96.8555    3.8419 C.3     1  UNL1        0.0312
     14 C          63.0786   96.8390    2.2059 C.ar    1  UNL1        0.0149
     15 C          62.5233   96.6172    0.8303 C.ar    1  UNL1        0.0811
     16 N          63.4309   96.1901   -0.2851 N.ar    1  UNL1       -0.2888
     17 C          64.6786   95.1363   -3.8062 C.ar    1  UNL1        0.0219
     18 C          64.9869   96.1969   -4.8211 C.ar    1  UNL1        0.0222
     19 C          65.1902   95.8222   -6.2592 C.ar    1  UNL1        0.0985
     20 N          65.0852   94.3869   -6.6824 N.ar    1  UNL1       -0.2481
     21 C          64.7769   93.3264   -5.6675 C.ar    1  UNL1        0.0594
     22 C          64.6718   91.8912   -6.0906 C.3     1  UNL1        0.0521
     23 C          64.5736   93.7011   -4.2293 C.ar    1  UNL1        0.0163
     24 C          57.2822   94.9972   -5.1608 C.2     1  UNL1        0.2414
     25 O          58.0345   93.6999   -5.1283 O.2     1  UNL1       -0.2733
     26 N          57.8583   96.2151   -4.5014 N.am    1  UNL1       -0.2682
     27 H          57.3646   97.0665   -4.5227 H       1  UNL1        0.1563
     28 C          55.9537   95.0768   -5.8529 C.3     1  UNL1        0.1319
     29 C          55.8760   94.9419   -7.3448 C.3     1  UNL1        0.0270
     30 C          53.5742   96.0950   -5.6271 C.3     1  UNL1        0.0862
     31 N          54.7030   95.2912   -5.0530 N.3     1  UNL1       -0.2902
     32 H          54.3278   94.3670   -4.8398 H       1  UNL1        0.1237
     33 C          60.7966   94.4668   -0.5885 C.1     1  UNL1       -0.0404
     34 C          60.9373   93.6721    0.6759 C.1     1  UNL1       -0.0583
     35 C          61.0780   92.8774    1.9403 C.ar    1  UNL1        0.0420
     36 C          62.3513   92.1366    2.2228 C.ar    1  UNL1        0.0082
     37 C          62.4919   91.3419    3.4872 C.ar    1  UNL1        0.0006
     38 C          61.3592   91.2881    4.4691 C.ar    1  UNL1        0.0000
     39 C          60.0859   92.0289    4.1866 C.ar    1  UNL1        0.0006
     40 C          59.9452   92.8236    2.9222 C.ar    1  UNL1        0.0082
@<TRIPOS>BOND
     1    30    31    1
     2    31    28    1
     3    28    29    1
     4    28    24    1
     5    24    25    2
     6    24    26   am
     7    26     1    1
     8     1     2   ar
     9     2     3   ar
    10     3     4   ar
    11     4     7    1
    12     7     8   ar
    13     8    17    1
    14    17    18   ar
    15    18    19   ar
    16    19    20   ar
    17    20    21   ar
    18    21    22    1
    19    21    23   ar
    20     8     9   ar
    21     9    10   ar
    22    10    11   ar
    23    11    12   ar
    24    12    13    1
    25    12    14   ar
    26    14    15   ar
    27    15    16   ar
    28     4     5   ar
    29     5    33    1
    30    33    34    3
    31    34    35    1
    32    35    36   ar
    33    36    37   ar
    34    37    38   ar
    35    38    39   ar
    36    39    40   ar
    37     5     6   ar
    38     6     1   ar
    39    16     7   ar
    40    40    35   ar
    41    23    17   ar
    42    16    10   ar
    43    31    32    1
    44    26    27    1
@<TRIPOS>MOLECULE
*****
 40 44 0 0 0
SMALL
GASTEIGER

@<TRIPOS>ATOM
      1 C          58.3369   93.3042   -4.1313 C.ar    1  UNL1        0.1348
      2 C          59.2209   94.2102   -4.9360 C.ar    1  UNL1        0.0346
      3 C          60.5293   94.6774   -4.3705 C.ar    1  UNL1        0.0065
      4 C          60.9537   94.2387   -3.0004 C.ar    1  UNL1        0.0432
      5 C          60.0697   93.3327   -2.1957 C.ar    1  UNL1        0.1256
      6 N          58.7612   92.8654   -2.7611 N.ar    1  UNL1       -0.2222
      7 C          62.2621   94.7060   -2.4350 C.ar    1  UNL1        0.0850
      8 C          63.5740   94.7418   -3.1614 C.ar    1  UNL1        0.0991
      9 N          64.6111   95.2774   -2.2192 N.ar    1  UNL1       -0.2265
     10 C          63.9401   95.5726   -0.9105 C.ar    1  UNL1        0.1474
     11 C          64.4634   96.1174    0.3853 C.ar    1  UNL1        0.0332
     12 C          63.5351   96.3090    1.5479 C.ar    1  UNL1       -0.0174
     13 C          64.0585   96.8538    2.8438 C.3     1  UNL1        0.0312
     14 C          62.0833   95.9558    1.4145 C.ar    1  UNL1        0.0149
     15 C          61.5600   95.4111    0.1187 C.ar    1  UNL1        0.0811
     16 N          62.4883   95.2195   -1.0439 N.ar    1  UNL1       -0.2888
     17 C          63.8078   94.3167   -4.5807 C.ar    1  UNL1        0.0219
     18 C          63.6855   95.3158   -5.6928 C.ar    1  UNL1        0.0222
     19 C          63.9193   94.8906   -7.1121 C.ar    1  UNL1        0.0985
     20 N          64.2754   93.4663   -7.4194 N.ar    1  UNL1       -0.2481
     21 C          64.3977   92.4672   -6.3074 C.ar    1  UNL1        0.0594
     22 C          64.7538   91.0428   -6.6146 C.3     1  UNL1        0.0521
     23 C          64.1639   92.8923   -4.8880 C.ar    1  UNL1        0.0163
     24 C          56.8910   92.5987   -6.1714 C.2     1  UNL1        0.2414
     25 O          58.0619   92.8277   -7.0804 O.2     1  UNL1       -0.2733
     26 N          57.0285   92.8369   -4.6968 N.am    1  UNL1       -0.2682
     27 H          56.2600   92.6866   -4.1001 H       1  UNL1        0.1563
     28 C          55.5825   92.1314   -6.7367 C.3     1  UNL1        0.1319
     29 C          55.2034   90.6826   -6.6516 C.3     1  UNL1        0.0270
     30 C          55.0691   94.5449   -7.5498 C.3     1  UNL1        0.0862
     31 N          54.6533   93.1129   -7.3872 N.3     1  UNL1       -0.2902
     32 H          54.4552   92.7559   -8.3219 H       1  UNL1        0.1237
     33 C          60.4940   92.8939   -0.8255 C.1     1  UNL1       -0.0404
     34 C          60.9184   92.4550    0.5447 C.1     1  UNL1       -0.0583
     35 C          61.3427   92.0163    1.9149 C.ar    1  UNL1        0.0420
     36 C          60.4052   92.1702    3.0756 C.ar    1  UNL1        0.0082
     37 C          60.8295   91.7314    4.4458 C.ar    1  UNL1        0.0006
     38 C          62.1915   91.1387    4.6551 C.ar    1  UNL1        0.0000
     39 C          63.1291   90.9848    3.4944 C.ar    1  UNL1        0.0006
     40 C          62.7047   91.4236    2.1243 C.ar    1  UNL1        0.0082
@<TRIPOS>BOND
     1    30    31    1
     2    31    28    1
     3    28    29    1
     4    28    24    1
     5    24    25    2
     6    24    26   am
     7    26     1    1
     8     1     2   ar
     9     2     3   ar
    10     3     4   ar
    11     4     7    1
    12     7     8   ar
    13     8    17    1
    14    17    18   ar
    15    18    19   ar
    16    19    20   ar
    17    20    21   ar
    18    21    22    1
    19    21    23   ar
    20     8     9   ar
    21     9    10   ar
    22    10    11   ar
    23    11    12   ar
    24    12    13    1
    25    12    14   ar
    26    14    15   ar
    27    15    16   ar
    28     4     5   ar
    29     5    33    1
    30    33    34    3
    31    34    35    1
    32    35    36   ar
    33    36    37   ar
    34    37    38   ar
    35    38    39   ar
    36    39    40   ar
    37     5     6   ar
    38     6     1   ar
    39    16     7   ar
    40    40    35   ar
    41    23    17   ar
    42    16    10   ar
    43    31    32    1
    44    26    27    1
