@<TRIPOS>MOLECULE
*****
 31 33 0 0 0
SMALL
GASTEIGER

@<TRIPOS>ATOM
      1 N          64.4167   88.4321   14.8265 N.am    1  UNL1       -0.2972
      2 C          63.3480   88.2955   15.8703 C.2     1  UNL1        0.2430
      3 O          62.3919   89.4246   16.1170 O.2     1  UNL1       -0.2732
      4 H          65.0442   87.6910   14.6646 H       1  UNL1        0.1500
      5 C          64.5292   89.6978   14.0295 C.3     1  UNL1        0.1169
      6 C          67.0980   93.0768   15.5239 C.ar    1  UNL1        0.1387
      7 C          67.5255   92.2833   14.3249 C.ar    1  UNL1        0.0366
      8 C          66.6692   91.1569   13.8268 C.ar    1  UNL1        0.0008
      9 C          65.3855   90.8241   14.5277 C.ar    1  UNL1       -0.0001
     10 C          64.9580   91.6177   15.7266 C.ar    1  UNL1        0.0008
     11 C          65.8143   92.7440   16.2247 C.ar    1  UNL1        0.0366
     12 C          69.4471   94.0579   16.0428 C.3     1  UNL1        0.2525
     13 O          67.9543   94.2032   16.0220 O.3     1  UNL1       -0.4714
     14 C          63.7854   89.8372   12.7344 C.ar    1  UNL1       -0.0003
     15 C          63.0106   88.6758   12.1857 C.ar    1  UNL1       -0.0024
     16 C          62.2669   88.8152   10.8906 C.ar    1  UNL1       -0.0003
     17 C          62.2979   90.1159   10.1442 C.ar    1  UNL1       -0.0000
     18 C          63.0726   91.2772   10.6928 C.ar    1  UNL1       -0.0003
     19 C          63.8164   91.1379   11.9880 C.ar    1  UNL1       -0.0024
     20 C          63.2356   87.0296   16.6673 C.3     1  UNL1        0.1759
     21 N          62.8772   85.7429   15.9846 N.am    1  UNL1       -0.2931
     22 C          63.8842   85.0489   15.1162 C.2     1  UNL1        0.2462
     23 O          65.2496   85.6416   14.9303 O.2     1  UNL1       -0.2701
     24 H          61.9811   85.3539   16.1066 H       1  UNL1        0.1502
     25 C          63.5259   83.7622   14.4336 C.ar    1  UNL1        0.0535
     26 C          64.3513   83.2688   13.2824 C.ar    1  UNL1        0.0068
     27 C          63.9930   81.9820   12.5998 C.ar    1  UNL1        0.0298
     28 C          62.8093   81.1888   13.0683 C.ar    1  UNL1        0.1401
     29 F          62.4510   79.9020   12.3857 F       1  UNL1       -0.2042
     30 C          61.9839   81.6822   14.2196 C.ar    1  UNL1        0.0298
     31 C          62.3422   82.9689   14.9022 C.ar    1  UNL1        0.0068
@<TRIPOS>BOND
     1    12    13    1
     2    13     6    1
     3     6     7   ar
     4     7     8   ar
     5     8     9   ar
     6     9     5    1
     7     5     1    1
     8     1     2   am
     9     2     3    2
    10     2    20    1
    11    20    21    1
    12    21    22   am
    13    22    23    2
    14    22    25    1
    15    25    26   ar
    16    26    27   ar
    17    27    28   ar
    18    28    29    1
    19    28    30   ar
    20    30    31   ar
    21     5    14    1
    22    14    15   ar
    23    15    16   ar
    24    16    17   ar
    25    17    18   ar
    26    18    19   ar
    27     9    10   ar
    28    10    11   ar
    29    11     6   ar
    30    31    25   ar
    31    19    14   ar
    32     1     4    1
    33    21    24    1
@<TRIPOS>MOLECULE
*****
 31 33 0 0 0
SMALL
GASTEIGER

@<TRIPOS>ATOM
      1 N          64.4821   87.7101   14.6402 N.am    1  UNL1       -0.2972
      2 C          63.6982   87.2400   15.8296 C.2     1  UNL1        0.2430
      3 O          62.6628   88.1332   16.4460 O.2     1  UNL1       -0.2732
      4 H          65.1617   87.1239   14.2356 H       1  UNL1        0.1500
      5 C          64.2305   89.0733   14.0672 C.3     1  UNL1        0.1169
      6 C          61.7845   89.5214   10.3167 C.ar    1  UNL1        0.1387
      7 C          62.2997   90.7385   11.0260 C.ar    1  UNL1        0.0366
      8 C          63.1150   90.5891   12.2761 C.ar    1  UNL1        0.0008
      9 C          63.4151   89.2227   12.8171 C.ar    1  UNL1       -0.0001
     10 C          62.8999   88.0055   12.1078 C.ar    1  UNL1        0.0008
     11 C          62.0846   88.1549   10.8576 C.ar    1  UNL1        0.0366
     12 C          60.0954   88.5436    8.6019 C.3     1  UNL1        0.2525
     13 O          60.9692   89.6707    9.0665 O.3     1  UNL1       -0.4714
     14 C          64.7942   90.2872   14.7445 C.ar    1  UNL1       -0.0003
     15 C          64.0180   90.9668   15.8335 C.ar    1  UNL1       -0.0024
     16 C          64.5817   92.1807   16.5107 C.ar    1  UNL1       -0.0003
     17 C          65.9215   92.7150   16.0991 C.ar    1  UNL1       -0.0000
     18 C          66.6977   92.0354   15.0102 C.ar    1  UNL1       -0.0003
     19 C          66.1340   90.8214   14.3329 C.ar    1  UNL1       -0.0024
     20 C          63.9499   85.8767   16.4025 C.3     1  UNL1        0.1759
     21 N          63.9594   84.6757   15.5039 N.am    1  UNL1       -0.2931
     22 C          62.6716   84.1459   14.9465 C.2     1  UNL1        0.2462
     23 O          61.3742   84.8171   15.2875 O.2     1  UNL1       -0.2701
     24 H          64.8109   84.2351   15.2801 H       1  UNL1        0.1502
     25 C          62.6811   82.9448   14.0479 C.ar    1  UNL1        0.0535
     26 C          61.9304   81.7074   14.4420 C.ar    1  UNL1        0.0068
     27 C          61.9399   80.5063   13.5435 C.ar    1  UNL1        0.0298
     28 C          62.7001   80.5427   12.2509 C.ar    1  UNL1        0.1401
     29 F          62.7095   79.3416   11.3523 F       1  UNL1       -0.2042
     30 C          63.4507   81.7802   11.8567 C.ar    1  UNL1        0.0298
     31 C          63.4412   82.9812   12.7553 C.ar    1  UNL1        0.0068
@<TRIPOS>BOND
     1    12    13    1
     2    13     6    1
     3     6     7   ar
     4     7     8   ar
     5     8     9   ar
     6     9     5    1
     7     5     1    1
     8     1     2   am
     9     2     3    2
    10     2    20    1
    11    20    21    1
    12    21    22   am
    13    22    23    2
    14    22    25    1
    15    25    26   ar
    16    26    27   ar
    17    27    28   ar
    18    28    29    1
    19    28    30   ar
    20    30    31   ar
    21     5    14    1
    22    14    15   ar
    23    15    16   ar
    24    16    17   ar
    25    17    18   ar
    26    18    19   ar
    27     9    10   ar
    28    10    11   ar
    29    11     6   ar
    30    31    25   ar
    31    19    14   ar
    32     1     4    1
    33    21    24    1
@<TRIPOS>MOLECULE
*****
 31 33 0 0 0
SMALL
GASTEIGER

@<TRIPOS>ATOM
      1 N          62.4603   87.8060   10.9469 N.am    1  UNL1       -0.2972
      2 C          61.2469   88.5382   11.4382 C.2     1  UNL1        0.2430
      3 O          59.9398   87.8155   11.5767 O.2     1  UNL1       -0.2732
      4 H          63.3182   88.2804   10.8560 H       1  UNL1        0.1500
      5 C          62.3668   86.3512   10.5940 C.3     1  UNL1        0.1169
      6 C          63.3049   83.2208   13.6877 C.ar    1  UNL1        0.1387
      7 C          63.5372   84.6707   13.9935 C.ar    1  UNL1        0.0366
      8 C          63.2245   85.7142   12.9623 C.ar    1  UNL1        0.0008
      9 C          62.6795   85.3077   11.6253 C.ar    1  UNL1       -0.0001
     10 C          62.4472   83.8577   11.3194 C.ar    1  UNL1        0.0008
     11 C          62.7599   82.8143   12.3507 C.ar    1  UNL1        0.0366
     12 C          63.4938   80.7225   14.3753 C.3     1  UNL1        0.2525
     13 O          63.6176   82.1773   14.7189 O.3     1  UNL1       -0.4714
     14 C          61.9605   85.9397    9.2100 C.ar    1  UNL1       -0.0003
     15 C          62.9581   85.2900    8.2974 C.ar    1  UNL1       -0.0024
     16 C          62.5518   84.8786    6.9134 C.ar    1  UNL1       -0.0003
     17 C          61.1480   85.1169    6.4418 C.ar    1  UNL1       -0.0000
     18 C          60.1504   85.7666    7.3543 C.ar    1  UNL1       -0.0003
     19 C          60.5566   86.1781    8.7384 C.ar    1  UNL1       -0.0024
     20 C          61.3405   89.9931   11.7911 C.3     1  UNL1        0.1759
     21 N          62.5056   90.4977   12.5897 N.am    1  UNL1       -0.2931
     22 C          63.6136   91.2456   11.9094 C.2     1  UNL1        0.2462
     23 O          63.5565   91.4891   10.4303 O.2     1  UNL1       -0.2701
     24 H          62.5431   90.3379   13.5605 H       1  UNL1        0.1502
     25 C          64.7788   91.7502   12.7081 C.ar    1  UNL1        0.0535
     26 C          65.5720   92.9248   12.2173 C.ar    1  UNL1        0.0068
     27 C          66.7372   93.4294   13.0160 C.ar    1  UNL1        0.0298
     28 C          67.1091   92.7593   14.3054 C.ar    1  UNL1        0.1401
     29 F          68.2742   93.2639   15.1040 F       1  UNL1       -0.2042
     30 C          66.3158   91.5846   14.7962 C.ar    1  UNL1        0.0298
     31 C          65.1506   91.0800   13.9975 C.ar    1  UNL1        0.0068
@<TRIPOS>BOND
     1    12    13    1
     2    13     6    1
     3     6     7   ar
     4     7     8   ar
     5     8     9   ar
     6     9     5    1
     7     5     1    1
     8     1     2   am
     9     2     3    2
    10     2    20    1
    11    20    21    1
    12    21    22   am
    13    22    23    2
    14    22    25    1
    15    25    26   ar
    16    26    27   ar
    17    27    28   ar
    18    28    29    1
    19    28    30   ar
    20    30    31   ar
    21     5    14    1
    22    14    15   ar
    23    15    16   ar
    24    16    17   ar
    25    17    18   ar
    26    18    19   ar
    27     9    10   ar
    28    10    11   ar
    29    11     6   ar
    30    31    25   ar
    31    19    14   ar
    32     1     4    1
    33    21    24    1
@<TRIPOS>MOLECULE
*****
 31 33 0 0 0
SMALL
GASTEIGER

@<TRIPOS>ATOM
      1 N          62.9066   88.4022   11.1143 N.am    1  UNL1       -0.2972
      2 C          62.1260   89.4440   11.8596 C.2     1  UNL1        0.2430
      3 O          60.7490   89.1305   12.3651 O.2     1  UNL1       -0.2732
      4 H          63.8104   88.6080   10.7826 H       1  UNL1        0.1500
      5 C          62.3102   87.0470   10.8746 C.3     1  UNL1        0.1169
      6 C          63.3588   83.6149   13.5896 C.ar    1  UNL1        0.1387
      7 C          62.6899   83.3524   12.2730 C.ar    1  UNL1        0.0366
      8 C          62.3403   84.4964   11.3680 C.ar    1  UNL1        0.0008
      9 C          62.6597   85.9029   11.7796 C.ar    1  UNL1       -0.0001
     10 C          63.3286   86.1655   13.0962 C.ar    1  UNL1        0.0008
     11 C          63.6781   85.0215   14.0013 C.ar    1  UNL1        0.0366
     12 C          63.6116   81.0608   13.9926 C.3     1  UNL1        0.2525
     13 O          63.7083   82.4709   14.4947 O.3     1  UNL1       -0.4714
     14 C          61.3642   86.8357    9.7298 C.ar    1  UNL1       -0.0003
     15 C          61.7737   85.9821    8.5663 C.ar    1  UNL1       -0.0024
     16 C          60.8277   85.7708    7.4215 C.ar    1  UNL1       -0.0003
     17 C          59.4724   86.4132    7.4402 C.ar    1  UNL1       -0.0000
     18 C          59.0629   87.2668    8.6037 C.ar    1  UNL1       -0.0003
     19 C          60.0089   87.4781    9.7485 C.ar    1  UNL1       -0.0024
     20 C          62.7225   90.7993   12.0993 C.3     1  UNL1        0.1759
     21 N          63.8368   90.9637   13.0899 N.am    1  UNL1       -0.2931
     22 C          64.9758   91.8926   12.7901 C.2     1  UNL1        0.2462
     23 O          65.0005   92.6570   11.4997 O.2     1  UNL1       -0.2701
     24 H          63.8206   90.4620   13.9368 H       1  UNL1        0.1502
     25 C          66.0901   92.0570   13.7807 C.ar    1  UNL1        0.0535
     26 C          67.5157   91.9145   13.3365 C.ar    1  UNL1        0.0068
     27 C          68.6300   92.0789   14.3271 C.ar    1  UNL1        0.0298
     28 C          68.3187   92.3858   15.7619 C.ar    1  UNL1        0.1401
     29 F          69.4331   92.5503   16.7525 F       1  UNL1       -0.2042
     30 C          66.8931   92.5284   16.2063 C.ar    1  UNL1        0.0298
     31 C          65.7788   92.3640   15.2157 C.ar    1  UNL1        0.0068
@<TRIPOS>BOND
     1    12    13    1
     2    13     6    1
     3     6     7   ar
     4     7     8   ar
     5     8     9   ar
     6     9     5    1
     7     5     1    1
     8     1     2   am
     9     2     3    2
    10     2    20    1
    11    20    21    1
    12    21    22   am
    13    22    23    2
    14    22    25    1
    15    25    26   ar
    16    26    27   ar
    17    27    28   ar
    18    28    29    1
    19    28    30   ar
    20    30    31   ar
    21     5    14    1
    22    14    15   ar
    23    15    16   ar
    24    16    17   ar
    25    17    18   ar
    26    18    19   ar
    27     9    10   ar
    28    10    11   ar
    29    11     6   ar
    30    31    25   ar
    31    19    14   ar
    32     1     4    1
    33    21    24    1
@<TRIPOS>MOLECULE
*****
 31 33 0 0 0
SMALL
GASTEIGER

@<TRIPOS>ATOM
      1 N          63.6593   90.1373   12.7058 N.am    1  UNL1       -0.2972
      2 C          62.1629   90.1014   12.6090 C.2     1  UNL1        0.2430
      3 O          61.3366   89.8829   13.8417 O.2     1  UNL1       -0.2732
      4 H          64.2016   90.2807   11.8967 H       1  UNL1        0.1500
      5 C          64.3295   89.9547   14.0352 C.3     1  UNL1        0.1169
      6 C          67.1831   93.0800   15.5646 C.ar    1  UNL1        0.1387
      7 C          65.9564   92.7333   16.3551 C.ar    1  UNL1        0.0366
      8 C          65.0053   91.6915   15.8453 C.ar    1  UNL1        0.0008
      9 C          65.2807   90.9965   14.5450 C.ar    1  UNL1       -0.0001
     10 C          66.5074   91.3432   13.7545 C.ar    1  UNL1        0.0008
     11 C          67.4586   92.3850   14.2643 C.ar    1  UNL1        0.0366
     12 C          69.6120   93.9435   15.8885 C.3     1  UNL1        0.2525
     13 O          68.1343   94.1218   16.0744 O.3     1  UNL1       -0.4714
     14 C          64.0486   88.7303   14.8548 C.ar    1  UNL1       -0.0003
     15 C          63.3509   88.8564   16.1767 C.ar    1  UNL1       -0.0024
     16 C          63.0699   87.6320   16.9964 C.ar    1  UNL1       -0.0003
     17 C          63.4866   86.2814   16.4941 C.ar    1  UNL1       -0.0000
     18 C          64.1842   86.1552   15.1723 C.ar    1  UNL1       -0.0003
     19 C          64.4652   87.3797   14.3526 C.ar    1  UNL1       -0.0024
     20 C          61.4927   90.2841   11.2795 C.3     1  UNL1        0.1759
     21 N          61.7162   89.2848   10.1834 N.am    1  UNL1       -0.2931
     22 C          61.1638   87.8961   10.3104 C.2     1  UNL1        0.2462
     23 O          60.3877   87.5065   11.5336 O.2     1  UNL1       -0.2701
     24 H          62.2255   89.5405    9.3806 H       1  UNL1        0.1502
     25 C          61.3873   86.8968    9.2143 C.ar    1  UNL1        0.0535
     26 C          60.2988   86.6171    8.2209 C.ar    1  UNL1        0.0068
     27 C          60.5223   85.6178    7.1248 C.ar    1  UNL1        0.0298
     28 C          61.8344   84.8983    7.0220 C.ar    1  UNL1        0.1401
     29 F          62.0579   83.8990    5.9259 F       1  UNL1       -0.2042
     30 C          62.9231   85.1780    8.0153 C.ar    1  UNL1        0.0298
     31 C          62.6995   86.1773    9.1115 C.ar    1  UNL1        0.0068
@<TRIPOS>BOND
     1    12    13    1
     2    13     6    1
     3     6     7   ar
     4     7     8   ar
     5     8     9   ar
     6     9     5    1
     7     5     1    1
     8     1     2   am
     9     2     3    2
    10     2    20    1
    11    20    21    1
    12    21    22   am
    13    22    23    2
    14    22    25    1
    15    25    26   ar
    16    26    27   ar
    17    27    28   ar
    18    28    29    1
    19    28    30   ar
    20    30    31   ar
    21     5    14    1
    22    14    15   ar
    23    15    16   ar
    24    16    17   ar
    25    17    18   ar
    26    18    19   ar
    27     9    10   ar
    28    10    11   ar
    29    11     6   ar
    30    31    25   ar
    31    19    14   ar
    32     1     4    1
    33    21    24    1
@<TRIPOS>MOLECULE
*****
 31 33 0 0 0
SMALL
GASTEIGER

@<TRIPOS>ATOM
      1 N          62.9470   88.4376   10.8546 N.am    1  UNL1       -0.2972
      2 C          62.2924   89.3401   11.8580 C.2     1  UNL1        0.2430
      3 O          60.8912   89.0619   12.3153 O.2     1  UNL1       -0.2732
      4 H          63.8667   88.6202   10.5544 H       1  UNL1        0.1500
      5 C          62.2005   87.2567   10.3085 C.3     1  UNL1        0.1169
      6 C          63.2646   83.0994   11.6629 C.ar    1  UNL1        0.1387
      7 C          62.6797   84.0789   12.6369 C.ar    1  UNL1        0.0366
      8 C          62.3250   85.4646   12.1854 C.ar    1  UNL1        0.0008
      9 C          62.5552   85.8710   10.7600 C.ar    1  UNL1       -0.0001
     10 C          63.1401   84.8915    9.7860 C.ar    1  UNL1        0.0008
     11 C          63.4948   83.5058   10.2375 C.ar    1  UNL1        0.0366
     12 C          62.5443   80.7810   12.5882 C.3     1  UNL1        0.2525
     13 O          63.6193   81.7137   12.1144 O.3     1  UNL1       -0.4714
     14 C          61.0992   87.4617    9.3109 C.ar    1  UNL1       -0.0003
     15 C          60.3877   86.2780    8.7254 C.ar    1  UNL1       -0.0024
     16 C          59.2865   86.4829    7.7279 C.ar    1  UNL1       -0.0003
     17 C          58.8967   87.8715    7.3157 C.ar    1  UNL1       -0.0000
     18 C          59.6081   89.0552    7.9012 C.ar    1  UNL1       -0.0003
     19 C          60.7094   88.8503    8.8988 C.ar    1  UNL1       -0.0024
     20 C          63.0390   90.5210   12.4041 C.3     1  UNL1        0.1759
     21 N          63.8799   91.3640   11.4917 N.am    1  UNL1       -0.2931
     22 C          64.9520   92.2452   12.0609 C.2     1  UNL1        0.2462
     23 O          65.1832   92.2835   13.5425 O.2     1  UNL1       -0.2701
     24 H          63.7281   91.3388   10.5193 H       1  UNL1        0.1502
     25 C          65.7928   93.0881   11.1486 C.ar    1  UNL1        0.0535
     26 C          65.5471   94.5648   11.0533 C.ar    1  UNL1        0.0068
     27 C          66.3879   95.4077   10.1409 C.ar    1  UNL1        0.0298
     28 C          67.4746   94.7740    9.3238 C.ar    1  UNL1        0.1401
     29 F          68.3154   95.6170    8.4115 F       1  UNL1       -0.2042
     30 C          67.7204   93.2973    9.4191 C.ar    1  UNL1        0.0298
     31 C          66.8795   92.4544   10.3315 C.ar    1  UNL1        0.0068
@<TRIPOS>BOND
     1    12    13    1
     2    13     6    1
     3     6     7   ar
     4     7     8   ar
     5     8     9   ar
     6     9     5    1
     7     5     1    1
     8     1     2   am
     9     2     3    2
    10     2    20    1
    11    20    21    1
    12    21    22   am
    13    22    23    2
    14    22    25    1
    15    25    26   ar
    16    26    27   ar
    17    27    28   ar
    18    28    29    1
    19    28    30   ar
    20    30    31   ar
    21     5    14    1
    22    14    15   ar
    23    15    16   ar
    24    16    17   ar
    25    17    18   ar
    26    18    19   ar
    27     9    10   ar
    28    10    11   ar
    29    11     6   ar
    30    31    25   ar
    31    19    14   ar
    32     1     4    1
    33    21    24    1
@<TRIPOS>MOLECULE
*****
 31 33 0 0 0
SMALL
GASTEIGER

@<TRIPOS>ATOM
      1 N          64.1394   90.7414   12.6104 N.am    1  UNL1       -0.2972
      2 C          62.6973   90.4014   12.3768 C.2     1  UNL1        0.2430
      3 O          61.8792   89.8029   13.4825 O.2     1  UNL1       -0.2732
      4 H          64.6763   91.1342   11.8847 H       1  UNL1        0.1500
      5 C          64.7635   90.4830   13.9497 C.3     1  UNL1        0.1169
      6 C          63.3505   87.0268   16.4613 C.ar    1  UNL1        0.1387
      7 C          64.1563   86.7732   15.2218 C.ar    1  UNL1        0.0366
      8 C          64.6273   87.9253   14.3846 C.ar    1  UNL1        0.0008
      9 C          64.2925   89.3310   14.7869 C.ar    1  UNL1       -0.0001
     10 C          63.4868   89.5846   16.0264 C.ar    1  UNL1        0.0008
     11 C          63.0158   88.4325   16.8636 C.ar    1  UNL1        0.0366
     12 C          62.3767   84.6248   16.6393 C.3     1  UNL1        0.2525
     13 O          62.8796   85.8747   17.2985 O.3     1  UNL1       -0.4714
     14 C          65.8585   91.3767   14.4518 C.ar    1  UNL1       -0.0003
     15 C          65.6856   92.1230   15.7415 C.ar    1  UNL1       -0.0024
     16 C          66.7806   93.0167   16.2436 C.ar    1  UNL1       -0.0003
     17 C          68.0487   93.1641   15.4560 C.ar    1  UNL1       -0.0000
     18 C          68.2217   92.4179   14.1664 C.ar    1  UNL1       -0.0003
     19 C          67.1266   91.5242   13.6642 C.ar    1  UNL1       -0.0024
     20 C          62.0732   90.6598   11.0374 C.3     1  UNL1        0.1759
     21 N          62.0660   89.5831    9.9931 N.am    1  UNL1       -0.2931
     22 C          61.3128   88.3087   10.2349 C.2     1  UNL1        0.2462
     23 O          60.5667   88.1110   11.5211 O.2     1  UNL1       -0.2701
     24 H          62.5557   89.7129    9.1489 H       1  UNL1        0.1502
     25 C          61.3057   87.2320    9.1905 C.ar    1  UNL1        0.0535
     26 C          62.5283   86.3910    8.9720 C.ar    1  UNL1        0.0068
     27 C          62.5211   85.3143    7.9277 C.ar    1  UNL1        0.0298
     28 C          61.2914   85.0786    7.1018 C.ar    1  UNL1        0.1401
     29 F          61.2842   84.0019    6.0575 F       1  UNL1       -0.2042
     30 C          60.0686   85.9197    7.3203 C.ar    1  UNL1        0.0298
     31 C          60.0758   86.9964    8.3647 C.ar    1  UNL1        0.0068
@<TRIPOS>BOND
     1    12    13    1
     2    13     6    1
     3     6     7   ar
     4     7     8   ar
     5     8     9   ar
     6     9     5    1
     7     5     1    1
     8     1     2   am
     9     2     3    2
    10     2    20    1
    11    20    21    1
    12    21    22   am
    13    22    23    2
    14    22    25    1
    15    25    26   ar
    16    26    27   ar
    17    27    28   ar
    18    28    29    1
    19    28    30   ar
    20    30    31   ar
    21     5    14    1
    22    14    15   ar
    23    15    16   ar
    24    16    17   ar
    25    17    18   ar
    26    18    19   ar
    27     9    10   ar
    28    10    11   ar
    29    11     6   ar
    30    31    25   ar
    31    19    14   ar
    32     1     4    1
    33    21    24    1
@<TRIPOS>MOLECULE
*****
 31 33 0 0 0
SMALL
GASTEIGER

@<TRIPOS>ATOM
      1 N          61.9448   87.6160   11.9263 N.am    1  UNL1       -0.2972
      2 C          62.1803   88.8277   11.0742 C.2     1  UNL1        0.2430
      3 O          62.7351   88.6742    9.6891 O.2     1  UNL1       -0.2732
      4 H          61.5807   87.7167   12.8355 H       1  UNL1        0.1500
      5 C          62.2640   86.2507   11.3934 C.3     1  UNL1        0.1169
      6 C          61.3455   85.2375    7.1062 C.ar    1  UNL1        0.1387
      7 C          62.7007   84.9365    7.6742 C.ar    1  UNL1        0.0366
      8 C          63.0069   85.2742    9.1033 C.ar    1  UNL1        0.0008
      9 C          61.9579   85.9130    9.9643 C.ar    1  UNL1       -0.0001
     10 C          60.6026   86.2140    9.3963 C.ar    1  UNL1        0.0008
     11 C          60.2965   85.8763    7.9672 C.ar    1  UNL1        0.0366
     12 C          62.0426   84.1494    4.8523 C.3     1  UNL1        0.2525
     13 O          61.0394   84.8998    5.6771 O.3     1  UNL1       -0.4714
     14 C          62.8894   85.2232   12.2894 C.ar    1  UNL1       -0.0003
     15 C          62.6808   83.7630   12.0162 C.ar    1  UNL1       -0.0024
     16 C          63.3062   82.7355   12.9123 C.ar    1  UNL1       -0.0003
     17 C          64.1402   83.1680   14.0816 C.ar    1  UNL1       -0.0000
     18 C          64.3489   84.6280   14.3549 C.ar    1  UNL1       -0.0003
     19 C          63.7235   85.6557   13.4588 C.ar    1  UNL1       -0.0024
     20 C          61.8611   90.1930   11.6073 C.3     1  UNL1        0.1759
     21 N          62.9535   91.0521   12.1716 N.am    1  UNL1       -0.2931
     22 C          63.6971   90.6109   13.3973 C.2     1  UNL1        0.2462
     23 O          63.3483   89.3104   14.0587 O.2     1  UNL1       -0.2701
     24 H          63.1825   91.9056   11.7376 H       1  UNL1        0.1502
     25 C          64.7895   91.4700   13.9617 C.ar    1  UNL1        0.0535
     26 C          65.7000   92.2268   13.0407 C.ar    1  UNL1        0.0068
     27 C          66.7924   93.0859   13.6051 C.ar    1  UNL1        0.0298
     28 C          66.9744   93.1882   15.0905 C.ar    1  UNL1        0.1401
     29 F          68.0669   94.0472   15.6548 F       1  UNL1       -0.2042
     30 C          66.0639   92.4313   16.0115 C.ar    1  UNL1        0.0298
     31 C          64.9715   91.5722   15.4471 C.ar    1  UNL1        0.0068
@<TRIPOS>BOND
     1    12    13    1
     2    13     6    1
     3     6     7   ar
     4     7     8   ar
     5     8     9   ar
     6     9     5    1
     7     5     1    1
     8     1     2   am
     9     2     3    2
    10     2    20    1
    11    20    21    1
    12    21    22   am
    13    22    23    2
    14    22    25    1
    15    25    26   ar
    16    26    27   ar
    17    27    28   ar
    18    28    29    1
    19    28    30   ar
    20    30    31   ar
    21     5    14    1
    22    14    15   ar
    23    15    16   ar
    24    16    17   ar
    25    17    18   ar
    26    18    19   ar
    27     9    10   ar
    28    10    11   ar
    29    11     6   ar
    30    31    25   ar
    31    19    14   ar
    32     1     4    1
    33    21    24    1
@<TRIPOS>MOLECULE
*****
 31 33 0 0 0
SMALL
GASTEIGER

@<TRIPOS>ATOM
      1 N          64.5602   91.9792   12.5781 N.am    1  UNL1       -0.2972
      2 C          64.3545   90.7318   13.3853 C.2     1  UNL1        0.2430
      3 O          65.4543   90.2190   14.2670 O.2     1  UNL1       -0.2732
      4 H          63.8383   92.3157   11.9994 H       1  UNL1        0.1500
      5 C          65.8658   92.7139   12.6526 C.3     1  UNL1        0.1169
      6 C          67.1747   95.3284    9.2319 C.ar    1  UNL1        0.1387
      7 C          67.3642   93.8424    9.1553 C.ar    1  UNL1        0.0366
      8 C          66.9279   92.9709   10.2955 C.ar    1  UNL1        0.0008
      9 C          66.3021   93.5854   11.5124 C.ar    1  UNL1       -0.0001
     10 C          66.1126   95.0713   11.5889 C.ar    1  UNL1        0.0008
     11 C          66.5489   95.9428   10.4487 C.ar    1  UNL1        0.0366
     12 C          66.5864   96.8501    7.2100 C.3     1  UNL1        0.2525
     13 O          67.6110   96.1999    8.0916 O.3     1  UNL1       -0.4714
     14 C          66.7351   92.5771   13.8673 C.ar    1  UNL1       -0.0003
     15 C          66.2172   92.9961   15.2113 C.ar    1  UNL1       -0.0024
     16 C          67.0865   92.8593   16.4260 C.ar    1  UNL1       -0.0003
     17 C          68.4737   92.3035   16.2968 C.ar    1  UNL1       -0.0000
     18 C          68.9916   91.8845   14.9529 C.ar    1  UNL1       -0.0003
     19 C          68.1223   92.0213   13.7381 C.ar    1  UNL1       -0.0024
     20 C          63.0488   89.9970   13.3108 C.3     1  UNL1        0.1759
     21 N          62.7650   89.0876   12.1522 N.am    1  UNL1       -0.2931
     22 C          61.3565   88.9041   11.6703 C.2     1  UNL1        0.2462
     23 O          60.2316   89.6300   12.3469 O.2     1  UNL1       -0.2701
     24 H          63.5033   88.6112   11.7081 H       1  UNL1        0.1502
     25 C          61.0727   87.9946   10.5116 C.ar    1  UNL1        0.0535
     26 C          61.8432   86.7173   10.3546 C.ar    1  UNL1        0.0068
     27 C          61.5594   85.8078    9.1960 C.ar    1  UNL1        0.0298
     28 C          60.5052   86.1758    8.1944 C.ar    1  UNL1        0.1401
     29 F          60.2215   85.2663    7.0358 F       1  UNL1       -0.2042
     30 C          59.7347   87.4532    8.3514 C.ar    1  UNL1        0.0298
     31 C          60.0185   88.3626    9.5100 C.ar    1  UNL1        0.0068
@<TRIPOS>BOND
     1    12    13    1
     2    13     6    1
     3     6     7   ar
     4     7     8   ar
     5     8     9   ar
     6     9     5    1
     7     5     1    1
     8     1     2   am
     9     2     3    2
    10     2    20    1
    11    20    21    1
    12    21    22   am
    13    22    23    2
    14    22    25    1
    15    25    26   ar
    16    26    27   ar
    17    27    28   ar
    18    28    29    1
    19    28    30   ar
    20    30    31   ar
    21     5    14    1
    22    14    15   ar
    23    15    16   ar
    24    16    17   ar
    25    17    18   ar
    26    18    19   ar
    27     9    10   ar
    28    10    11   ar
    29    11     6   ar
    30    31    25   ar
    31    19    14   ar
    32     1     4    1
    33    21    24    1
