@<TRIPOS>MOLECULE
*****
 55 59 0 0 0
SMALL
GASTEIGER

@<TRIPOS>ATOM
      1 C          63.8127   85.6548   14.4155 C.3     1  UNL1        0.0296
      2 C          64.6048   86.8546   14.8434 C.3     1  UNL1        0.0052
      3 C          64.2962   87.9758   13.8959 C.3     1  UNL1        0.0309
      4 C          63.3134   87.4689   12.8824 C.3     1  UNL1        0.1033
      5 O          63.7085   88.9024   12.6853 O.3     1  UNL1       -0.3830
      6 C          62.6520   88.1282   11.7085 C.2     1  UNL1       -0.0179
      7 C          62.9508   89.5626   11.3874 C.2     1  UNL1        0.0311
      8 C          62.2894   90.2219   10.2136 C.2     1  UNL1        0.1722
      9 O          62.5882   91.6564    9.8925 O.2     1  UNL1       -0.2914
     10 C          61.3291   89.4467    9.3609 C.3     1  UNL1        0.0648
     11 C          60.6677   90.1061    8.1871 C.3     1  UNL1        0.0398
     12 C          59.7075   89.3310    7.3344 C.3     1  UNL1        0.1449
     13 C          59.4087   87.8965    7.6555 C.3     1  UNL1        0.1376
     14 O          58.4484   87.1213    6.8028 O.3     1  UNL1       -0.3820
     15 C          60.0701   87.2372    8.8294 C.3     1  UNL1        0.0325
     16 C          61.0303   88.0124    9.6820 C.3     1  UNL1        0.0129
     17 C          60.7315   86.5780   10.0032 C.3     1  UNL1        0.0008
     18 C          61.6918   87.3530   10.8559 C.3     1  UNL1        0.0211
     19 C          61.3930   85.9187   11.1770 C.3     1  UNL1        0.0042
     20 C          62.0544   85.2593   12.3508 C.3     1  UNL1        0.0030
     21 C          63.0146   86.0345   13.2035 C.3     1  UNL1        0.0281
     22 C          62.8153   84.6149   13.6451 C.3     1  UNL1        0.0027
     23 H          63.2450   89.2623   11.9129 H       1  UNL1        0.2107
     24 H          58.1137   87.6912    6.0928 H       1  UNL1        0.2104
     25 C          63.8178   84.3112   15.0824 C.3     1  UNL1        0.1129
     26 C          63.8230   82.9677   15.7494 C.3     1  UNL1        0.0318
     27 O          62.6359   84.7183   15.9115 O.3     1  UNL1       -0.3844
     28 H          62.3843   83.9869   16.4968 H       1  UNL1        0.2103
     29 C          64.9998   83.9042   14.2533 C.3     1  UNL1        0.1349
     30 O          66.1683   84.8332   14.1061 O.3     1  UNL1       -0.3821
     31 H          65.9994   85.6469   14.6062 H       1  UNL1        0.2104
     32 C          65.0132   82.5682   13.5715 C.3     1  UNL1        0.0340
     33 C          64.7412   83.3939   11.1231 C.3     1  UNL1        0.0025
     34 C          64.4045   82.4154   12.2091 C.3     1  UNL1        0.0272
     35 C          63.4593   81.2840   11.9325 C.3     1  UNL1        0.0885
     36 C          63.5612   80.8489   13.3644 C.3     1  UNL1        0.0293
     37 C          63.3573   81.7192   10.5007 C.3     1  UNL1        0.0293
     38 O          62.5139   80.1526   11.6560 O.3     1  UNL1       -0.3867
     39 H          62.3724   79.6435   12.4694 H       1  UNL1        0.2102
     40 O          59.0461   89.9902    6.1606 O.3     1  UNL1       -0.3287
     41 C          59.8685   90.7642    5.1734 C.3     1  UNL1        0.2657
     42 O          61.2450   90.2917    4.8102 O.3     1  UNL1       -0.3260
     43 C          62.0676   91.0655    3.8230 C.3     1  UNL1        0.1761
     44 C          61.5136   92.3120    3.1990 C.3     1  UNL1        0.1694
     45 O          62.3360   93.0859    2.2118 O.3     1  UNL1       -0.3794
     46 C          60.1371   92.7845    3.5622 C.3     1  UNL1        0.1715
     47 O          59.5830   94.0310    2.9382 O.3     1  UNL1       -0.3794
     48 C          59.3145   92.0106    4.5494 C.3     1  UNL1        0.1964
     49 O          57.9380   92.4832    4.9126 O.3     1  UNL1       -0.3775
     50 H          61.8338   93.8578    1.9072 H       1  UNL1        0.2105
     51 H          58.6896   94.1936    3.2790 H       1  UNL1        0.2105
     52 H          57.5468   91.8738    5.5580 H       1  UNL1        0.2106
     53 C          63.4441   90.5930    3.4599 C.3     1  UNL1        0.1693
     54 O          64.3091   91.4243    2.5595 O.3     1  UNL1       -0.3794
     55 H          63.9123   91.4631    1.6753 H       1  UNL1        0.2105
@<TRIPOS>BOND
     1    34    33    1
     2    34    32    1
     3    32    29    1
     4    29    30    1
     5    29    25    1
     6    25    26    1
     7    25    27    1
     8    25     1    1
     9     1     2    1
    10     2     3    1
    11     3     4    1
    12     4     5    1
    13     4     6    1
    14     6     7    2
    15     7     8    1
    16     8     9    2
    17     8    10    1
    18    10    11    1
    19    11    12    1
    20    12    40    1
    21    41    40    1
    22    41    42    1
    23    42    43    1
    24    43    53    1
    25    53    54    1
    26    43    44    1
    27    44    45    1
    28    44    46    1
    29    46    47    1
    30    46    48    1
    31    48    49    1
    32    12    13    1
    33    13    14    1
    34    13    15    1
    35    15    16    1
    36    16    17    1
    37    16    18    1
    38    18    19    1
    39    19    20    1
    40    20    21    1
    41    21    22    1
    42    34    35    1
    43    35    36    1
    44    35    37    1
    45    35    38    1
    46    21     1    1
    47    21     4    1
    48    18     6    1
    49    16    10    1
    50    48    41    1
    51    30    31    1
    52    27    28    1
    53     5    23    1
    54    54    55    1
    55    45    50    1
    56    47    51    1
    57    49    52    1
    58    14    24    1
    59    38    39    1
@<TRIPOS>MOLECULE
*****
 55 59 0 0 0
SMALL
GASTEIGER

@<TRIPOS>ATOM
      1 C          64.0444   85.1756   13.9810 C.3     1  UNL1        0.0296
      2 C          64.6931   86.3820   14.5921 C.3     1  UNL1        0.0052
      3 C          64.2783   87.5843   13.7968 C.3     1  UNL1        0.0309
      4 C          63.3732   87.1209   12.6941 C.3     1  UNL1        0.1033
      5 O          63.6116   88.6018   12.7060 O.3     1  UNL1       -0.3830
      6 C          62.6620   87.8621   11.6011 C.2     1  UNL1       -0.0179
      7 C          62.8065   89.3508   11.4873 C.2     1  UNL1        0.0311
      8 C          62.0953   90.0920   10.3943 C.2     1  UNL1        0.1722
      9 O          62.2399   91.5807   10.2805 O.2     1  UNL1       -0.2914
     10 C          61.2395   89.3445    9.4150 C.3     1  UNL1        0.0648
     11 C          60.5282   90.0858    8.3220 C.3     1  UNL1        0.0398
     12 C          59.6724   89.3384    7.3428 C.3     1  UNL1        0.1449
     13 C          59.5279   87.8497    7.4566 C.3     1  UNL1        0.1376
     14 O          58.6720   87.1022    6.4773 O.3     1  UNL1       -0.3820
     15 C          60.2391   87.1085    8.5496 C.3     1  UNL1        0.0325
     16 C          61.0949   87.8559    9.5288 C.3     1  UNL1        0.0129
     17 C          60.9503   86.3673    9.6427 C.3     1  UNL1        0.0008
     18 C          61.8062   87.1146   10.6219 C.3     1  UNL1        0.0211
     19 C          61.6616   85.6260   10.7357 C.3     1  UNL1        0.0042
     20 C          62.3728   84.8847   11.8287 C.3     1  UNL1        0.0030
     21 C          63.2286   85.6322   12.8080 C.3     1  UNL1        0.0281
     22 C          63.1794   84.1521   13.0462 C.3     1  UNL1        0.0027
     23 H          63.1236   89.0137   11.9759 H       1  UNL1        0.2107
     24 H          58.2881   87.7260    5.8414 H       1  UNL1        0.2104
     25 C          64.1865   83.7608   14.4589 C.3     1  UNL1        0.1129
     26 C          64.3285   82.3461   14.9369 C.3     1  UNL1        0.0318
     27 O          65.1686   83.4877   13.3585 O.3     1  UNL1       -0.3844
     28 H          65.4669   82.5663   13.4127 H       1  UNL1        0.2103
     29 C          63.2043   84.0340   15.5593 C.3     1  UNL1        0.1349
     30 O          61.9422   83.2289   15.6550 O.3     1  UNL1       -0.3821
     31 H          61.9174   82.5797   14.9347 H       1  UNL1        0.2104
     32 C          63.4842   85.1121   16.5639 C.3     1  UNL1        0.0340
     33 C          61.0297   85.9473   16.3971 C.3     1  UNL1        0.0025
     34 C          62.4416   86.1485   16.8620 C.3     1  UNL1        0.0272
     35 C          62.8109   87.3860   17.6249 C.3     1  UNL1        0.0885
     36 C          62.8113   88.1731   16.3481 C.3     1  UNL1        0.0293
     37 C          62.8105   86.5989   18.9018 C.3     1  UNL1        0.0293
     38 O          63.1802   88.6236   18.3879 O.3     1  UNL1       -0.3867
     39 H          63.2601   89.3702   17.7738 H       1  UNL1        0.2102
     40 O          58.9612   90.0796    6.2498 O.3     1  UNL1       -0.3287
     41 C          59.7490   90.8220    5.2113 C.3     1  UNL1        0.2657
     42 O          61.1437   90.3852    4.8737 O.3     1  UNL1       -0.3260
     43 C          61.9315   91.1274    3.8354 C.3     1  UNL1        0.1761
     44 C          61.3246   92.3067    3.1344 C.3     1  UNL1        0.1694
     45 O          62.1123   93.0490    2.0961 O.3     1  UNL1       -0.3794
     46 C          59.9298   92.7434    3.4720 C.3     1  UNL1        0.1715
     47 O          59.3229   93.9226    2.7712 O.3     1  UNL1       -0.3794
     48 C          59.1420   92.0011    4.5105 C.3     1  UNL1        0.1964
     49 O          57.7473   92.4379    4.8481 O.3     1  UNL1       -0.3775
     50 H          61.5775   93.7778    1.7444 H       1  UNL1        0.2105
     51 H          58.4238   94.0692    3.1045 H       1  UNL1        0.2105
     52 H          57.3830   91.8557    5.5330 H       1  UNL1        0.2106
     53 C          63.3262   90.6907    3.4978 C.3     1  UNL1        0.1693
     54 O          64.2816   91.6569    2.8624 O.3     1  UNL1       -0.3794
     55 H          63.9649   91.8887    1.9754 H       1  UNL1        0.2105
@<TRIPOS>BOND
     1    34    33    1
     2    34    32    1
     3    32    29    1
     4    29    30    1
     5    29    25    1
     6    25    26    1
     7    25    27    1
     8    25     1    1
     9     1     2    1
    10     2     3    1
    11     3     4    1
    12     4     5    1
    13     4     6    1
    14     6     7    2
    15     7     8    1
    16     8     9    2
    17     8    10    1
    18    10    11    1
    19    11    12    1
    20    12    40    1
    21    41    40    1
    22    41    42    1
    23    42    43    1
    24    43    53    1
    25    53    54    1
    26    43    44    1
    27    44    45    1
    28    44    46    1
    29    46    47    1
    30    46    48    1
    31    48    49    1
    32    12    13    1
    33    13    14    1
    34    13    15    1
    35    15    16    1
    36    16    17    1
    37    16    18    1
    38    18    19    1
    39    19    20    1
    40    20    21    1
    41    21    22    1
    42    34    35    1
    43    35    36    1
    44    35    37    1
    45    35    38    1
    46    21     1    1
    47    21     4    1
    48    18     6    1
    49    16    10    1
    50    48    41    1
    51    30    31    1
    52    27    28    1
    53     5    23    1
    54    54    55    1
    55    45    50    1
    56    47    51    1
    57    49    52    1
    58    14    24    1
    59    38    39    1
@<TRIPOS>MOLECULE
*****
 55 59 0 0 0
SMALL
GASTEIGER

@<TRIPOS>ATOM
      1 C          62.3193   94.8546   -1.7437 C.3     1  UNL1        0.0296
      2 C          63.7525   94.4314   -1.6148 C.3     1  UNL1        0.0052
      3 C          63.8766   93.5838   -0.3834 C.3     1  UNL1        0.0309
      4 C          62.5201   93.4832    0.2487 C.3     1  UNL1        0.1033
      5 O          63.5937   92.7398    0.9867 O.3     1  UNL1       -0.3830
      6 C          62.0368   92.7779    1.4812 C.2     1  UNL1       -0.0179
      7 C          62.9993   91.9925    2.3219 C.2     1  UNL1        0.0311
      8 C          62.5161   91.2871    3.5543 C.2     1  UNL1        0.1722
      9 O          63.4786   90.5017    4.3950 O.2     1  UNL1       -0.2914
     10 C          61.0704   91.3673    3.9461 C.3     1  UNL1        0.0648
     11 C          60.5872   90.6619    5.1787 C.3     1  UNL1        0.0398
     12 C          59.1415   90.7420    5.5705 C.3     1  UNL1        0.1449
     13 C          58.1790   91.5275    4.7298 C.3     1  UNL1        0.1376
     14 O          56.7332   91.6076    5.1216 O.3     1  UNL1       -0.3820
     15 C          58.6623   92.2328    3.4973 C.3     1  UNL1        0.0325
     16 C          60.1079   92.1527    3.1055 C.3     1  UNL1        0.0129
     17 C          59.1455   92.9381    2.2648 C.3     1  UNL1        0.0008
     18 C          60.5911   92.8580    1.8730 C.3     1  UNL1        0.0211
     19 C          59.6287   93.6434    1.0323 C.3     1  UNL1        0.0042
     20 C          60.1119   94.3488   -0.2002 C.3     1  UNL1        0.0030
     21 C          61.5576   94.2686   -0.5920 C.3     1  UNL1        0.0281
     22 C          60.7168   95.0875   -1.5261 C.3     1  UNL1        0.0027
     23 H          63.2112   92.3106    1.7680 H       1  UNL1        0.2107
     24 H          56.5903   91.1001    5.9358 H       1  UNL1        0.2104
     25 C          61.7481   95.7132   -2.8330 C.3     1  UNL1        0.1129
     26 C          61.1768   96.5717   -3.9223 C.3     1  UNL1        0.0318
     27 O          61.6272   96.8560   -1.8689 O.3     1  UNL1       -0.3844
     28 H          61.2528   97.6257   -2.3253 H       1  UNL1        0.2103
     29 C          61.8689   94.5704   -3.7971 C.3     1  UNL1        0.1349
     30 O          61.2943   93.2297   -3.4469 O.3     1  UNL1       -0.3821
     31 H          60.8831   93.2734   -2.5694 H       1  UNL1        0.2104
     32 C          62.5644   94.7682   -5.1113 C.3     1  UNL1        0.0340
     33 C          65.1412   95.0949   -5.0510 C.3     1  UNL1        0.0025
     34 C          63.9477   94.2259   -5.3169 C.3     1  UNL1        0.0272
     35 C          64.1377   92.8146   -5.7883 C.3     1  UNL1        0.0885
     36 C          64.6815   92.4381   -4.4420 C.3     1  UNL1        0.0293
     37 C          63.5939   93.1911   -7.1345 C.3     1  UNL1        0.0293
     38 O          64.3276   91.4033   -6.2597 O.3     1  UNL1       -0.3867
     39 H          64.7001   90.8696   -5.5405 H       1  UNL1        0.2102
     40 O          58.6583   90.0367    6.8029 O.3     1  UNL1       -0.3287
     41 C          59.6441   89.4075    7.7422 C.3     1  UNL1        0.2657
     42 O          60.5390   90.2721    8.5799 O.3     1  UNL1       -0.3260
     43 C          61.5249   89.6430    9.5191 C.3     1  UNL1        0.1761
     44 C          61.6159   88.1492    9.6208 C.3     1  UNL1        0.1694
     45 O          62.6017   87.5200   10.5600 O.3     1  UNL1       -0.3794
     46 C          60.7210   87.2846    8.7831 C.3     1  UNL1        0.1715
     47 O          60.8119   85.7908    8.8847 O.3     1  UNL1       -0.3794
     48 C          59.7351   87.9137    7.8438 C.3     1  UNL1        0.1964
     49 O          58.8402   87.0492    7.0062 O.3     1  UNL1       -0.3775
     50 H          62.5312   86.5542   10.5033 H       1  UNL1        0.2105
     51 H          60.1695   85.3860    8.2811 H       1  UNL1        0.2105
     52 H          58.2683   87.6101    6.4592 H       1  UNL1        0.2106
     53 C          62.4198   90.5076   10.3568 C.3     1  UNL1        0.1693
     54 O          63.0981   91.6980    9.7463 O.3     1  UNL1       -0.3794
     55 H          63.7374   91.3997    9.0805 H       1  UNL1        0.2105
@<TRIPOS>BOND
     1    34    33    1
     2    34    32    1
     3    32    29    1
     4    29    30    1
     5    29    25    1
     6    25    26    1
     7    25    27    1
     8    25     1    1
     9     1     2    1
    10     2     3    1
    11     3     4    1
    12     4     5    1
    13     4     6    1
    14     6     7    2
    15     7     8    1
    16     8     9    2
    17     8    10    1
    18    10    11    1
    19    11    12    1
    20    12    40    1
    21    41    40    1
    22    41    42    1
    23    42    43    1
    24    43    53    1
    25    53    54    1
    26    43    44    1
    27    44    45    1
    28    44    46    1
    29    46    47    1
    30    46    48    1
    31    48    49    1
    32    12    13    1
    33    13    14    1
    34    13    15    1
    35    15    16    1
    36    16    17    1
    37    16    18    1
    38    18    19    1
    39    19    20    1
    40    20    21    1
    41    21    22    1
    42    34    35    1
    43    35    36    1
    44    35    37    1
    45    35    38    1
    46    21     1    1
    47    21     4    1
    48    18     6    1
    49    16    10    1
    50    48    41    1
    51    30    31    1
    52    27    28    1
    53     5    23    1
    54    54    55    1
    55    45    50    1
    56    47    51    1
    57    49    52    1
    58    14    24    1
    59    38    39    1
@<TRIPOS>MOLECULE
*****
 55 59 0 0 0
SMALL
GASTEIGER

@<TRIPOS>ATOM
      1 C          62.3470   94.8676   -1.6620 C.3     1  UNL1        0.0296
      2 C          63.7749   94.4179   -1.5670 C.3     1  UNL1        0.0052
      3 C          63.9105   93.5606   -0.3436 C.3     1  UNL1        0.0309
      4 C          62.5664   93.4803    0.3174 C.3     1  UNL1        0.1033
      5 O          63.6423   92.7132    1.0274 O.3     1  UNL1       -0.3830
      6 C          62.0976   92.7760    1.5560 C.2     1  UNL1       -0.0179
      7 C          63.0638   91.9682    2.3708 C.2     1  UNL1        0.0311
      8 C          62.5950   91.2639    3.6094 C.2     1  UNL1        0.1722
      9 O          63.5613   90.4562    4.4241 O.2     1  UNL1       -0.2914
     10 C          61.1598   91.3674    4.0332 C.3     1  UNL1        0.0648
     11 C          60.6910   90.6631    5.2719 C.3     1  UNL1        0.0398
     12 C          59.2558   90.7666    5.6957 C.3     1  UNL1        0.1449
     13 C          58.2896   91.5744    4.8809 C.3     1  UNL1        0.1376
     14 O          56.8544   91.6779    5.3048 O.3     1  UNL1       -0.3820
     15 C          58.7585   92.2786    3.6423 C.3     1  UNL1        0.0325
     16 C          60.1936   92.1752    3.2185 C.3     1  UNL1        0.0129
     17 C          59.2273   92.9829    2.4038 C.3     1  UNL1        0.0008
     18 C          60.6624   92.8795    1.9799 C.3     1  UNL1        0.0211
     19 C          59.6962   93.6872    1.1652 C.3     1  UNL1        0.0042
     20 C          60.1650   94.3915   -0.0735 C.3     1  UNL1        0.0030
     21 C          61.6002   94.2880   -0.4973 C.3     1  UNL1        0.0281
     22 C          60.7541   95.1276   -1.4079 C.3     1  UNL1        0.0027
     23 H          63.2693   92.2860    1.8143 H       1  UNL1        0.2107
     24 H          56.7201   91.1679    6.1190 H       1  UNL1        0.2104
     25 C          61.7677   95.7430   -2.7334 C.3     1  UNL1        0.1129
     26 C          61.1884   96.6184   -3.8049 C.3     1  UNL1        0.0318
     27 O          61.6121   96.8560   -1.7400 O.3     1  UNL1       -0.3844
     28 H          61.2254   97.6296   -2.1791 H       1  UNL1        0.2103
     29 C          61.9233   94.6300   -3.7269 C.3     1  UNL1        0.1349
     30 O          61.3861   93.2648   -3.4140 O.3     1  UNL1       -0.3821
     31 H          60.9717   93.2736   -2.5370 H       1  UNL1        0.2104
     32 C          62.6161   94.8820   -5.0332 C.3     1  UNL1        0.0340
     33 C          65.2039   95.1078   -5.0809 C.3     1  UNL1        0.0025
     34 C          63.9675   94.2852   -5.2929 C.3     1  UNL1        0.0272
     35 C          64.0826   92.8660   -5.7645 C.3     1  UNL1        0.0885
     36 C          63.5014   93.2594   -7.0902 C.3     1  UNL1        0.0293
     37 C          64.6637   92.4726   -4.4388 C.3     1  UNL1        0.0293
     38 O          64.1977   91.4467   -6.2362 O.3     1  UNL1       -0.3867
     39 H          63.8681   91.3806   -7.1461 H       1  UNL1        0.2102
     40 O          58.7870   90.0623    6.9343 O.3     1  UNL1       -0.3287
     41 C          59.6416   89.0022    7.5633 C.3     1  UNL1        0.2657
     42 O          59.7735   87.6590    6.9088 O.3     1  UNL1       -0.3260
     43 C          60.6281   86.5988    7.5377 C.3     1  UNL1        0.1761
     44 C          61.3509   86.8818    8.8213 C.3     1  UNL1        0.1694
     45 O          62.2055   85.8217    9.4502 O.3     1  UNL1       -0.3794
     46 C          61.2190   88.2250    9.4758 C.3     1  UNL1        0.1715
     47 O          61.9418   88.5080   10.7594 O.3     1  UNL1       -0.3794
     48 C          60.3644   89.2852    8.8469 C.3     1  UNL1        0.1964
     49 O          60.2325   90.6284    9.5014 O.3     1  UNL1       -0.3775
     50 H          62.5977   86.1656   10.2680 H       1  UNL1        0.2105
     51 H          61.7504   89.4150   11.0450 H       1  UNL1        0.2105
     52 H          59.6489   91.1915    8.9693 H       1  UNL1        0.2106
     53 C          60.7599   85.2556    6.8832 C.3     1  UNL1        0.1693
     54 O          62.1191   84.7061    6.5658 O.3     1  UNL1       -0.3794
     55 H          62.5413   85.2585    5.8894 H       1  UNL1        0.2105
@<TRIPOS>BOND
     1    34    33    1
     2    34    32    1
     3    32    29    1
     4    29    30    1
     5    29    25    1
     6    25    26    1
     7    25    27    1
     8    25     1    1
     9     1     2    1
    10     2     3    1
    11     3     4    1
    12     4     5    1
    13     4     6    1
    14     6     7    2
    15     7     8    1
    16     8     9    2
    17     8    10    1
    18    10    11    1
    19    11    12    1
    20    12    40    1
    21    41    40    1
    22    41    42    1
    23    42    43    1
    24    43    53    1
    25    53    54    1
    26    43    44    1
    27    44    45    1
    28    44    46    1
    29    46    47    1
    30    46    48    1
    31    48    49    1
    32    12    13    1
    33    13    14    1
    34    13    15    1
    35    15    16    1
    36    16    17    1
    37    16    18    1
    38    18    19    1
    39    19    20    1
    40    20    21    1
    41    21    22    1
    42    34    35    1
    43    35    36    1
    44    35    37    1
    45    35    38    1
    46    21     1    1
    47    21     4    1
    48    18     6    1
    49    16    10    1
    50    48    41    1
    51    30    31    1
    52    27    28    1
    53     5    23    1
    54    54    55    1
    55    45    50    1
    56    47    51    1
    57    49    52    1
    58    14    24    1
    59    38    39    1
