@<TRIPOS>MOLECULE
*****
 28 31 0 0 0
SMALL
GASTEIGER

@<TRIPOS>ATOM
      1 C          65.5749   92.3398   12.7359 C.ar    1  UNL1        0.0579
      2 C          65.4873   91.5251   13.9924 C.ar    1  UNL1        0.0833
      3 N          64.4237   90.4855   13.7975 N.ar    1  UNL1       -0.3048
      4 C          63.8539   90.6577   12.4207 C.ar    1  UNL1        0.0641
      5 C          62.7791   89.9190   11.6797 C.ar    1  UNL1        0.0175
      6 C          62.4158   90.3263   10.2826 C.ar    1  UNL1        0.0015
      7 C          63.1273   91.4723    9.6264 C.ar    1  UNL1        0.0001
      8 C          64.2020   92.2110   10.3675 C.ar    1  UNL1        0.0016
      9 C          64.5653   91.8037   11.7646 C.ar    1  UNL1        0.0207
     10 C          64.0037   89.4547   14.8030 C.ar    1  UNL1        0.0640
     11 C          64.2867   88.0031   14.5520 C.ar    1  UNL1        0.0176
     12 C          63.8666   86.9723   15.5575 C.ar    1  UNL1        0.0026
     13 C          63.1635   87.3930   16.8139 C.ar    1  UNL1        0.0141
     14 C          62.8805   88.8445   17.0649 C.ar    1  UNL1        0.0026
     15 C          63.3006   89.8753   16.0594 C.ar    1  UNL1        0.0176
     16 C          62.7435   86.3621   17.8194 C.2     1  UNL1        0.0729
     17 O          62.6396   86.7283   19.2703 O.co2   1  UNL1       -0.5446
     18 O          62.4272   84.9652   17.3739 O.co2   1  UNL1       -0.5446
     19 C          66.5081   93.4888   12.4934 C.2     1  UNL1        0.1976
     20 O          67.0676   94.2582   13.6530 O.2     1  UNL1       -0.2865
     21 C          68.2242   91.6572   10.8502 C.3     1  UNL1        0.0312
     22 C          67.7398   92.9526   10.2695 C.ar    1  UNL1       -0.0179
     23 C          68.1134   93.3322    8.8673 C.ar    1  UNL1       -0.0041
     24 C          67.6290   94.6276    8.2866 C.ar    1  UNL1        0.0005
     25 C          66.7709   95.5434    9.1082 C.ar    1  UNL1        0.0115
     26 C          66.3973   95.1639   10.5104 C.ar    1  UNL1        0.0604
     27 CL         65.5392   96.0797   11.3320 Cl      1  UNL1       -0.0822
     28 C          66.8817   93.8684   11.0911 C.ar    1  UNL1        0.0456
@<TRIPOS>UNITY_ATOM_ATTR
17 1
charge -1
@<TRIPOS>BOND
     1    21    22    1
     2    22    23   ar
     3    23    24   ar
     4    24    25   ar
     5    25    26   ar
     6    26    27    1
     7    26    28   ar
     8    28    19    1
     9    19    20    2
    10    19     1    1
    11     1     2   ar
    12     2     3   ar
    13     3    10    1
    14    10    11   ar
    15    11    12   ar
    16    12    13   ar
    17    13    16    1
    18    16    17   ar
    19    16    18   ar
    20    13    14   ar
    21    14    15   ar
    22     3     4   ar
    23     4     5   ar
    24     5     6   ar
    25     6     7   ar
    26     7     8   ar
    27     8     9   ar
    28    28    22   ar
    29     9     1   ar
    30    15    10   ar
    31     9     4   ar
@<TRIPOS>MOLECULE
*****
 28 31 0 0 0
SMALL
GASTEIGER

@<TRIPOS>ATOM
      1 C          64.9261   92.2536   12.1195 C.ar    1  UNL1        0.0579
      2 C          64.2121   91.6130   10.9664 C.ar    1  UNL1        0.0833
      3 N          63.3693   90.4957   11.5061 N.ar    1  UNL1       -0.3048
      4 C          63.5624   90.4458   12.9928 C.ar    1  UNL1        0.0641
      5 C          62.9863   89.5514   14.0502 C.ar    1  UNL1        0.0175
      6 C          63.3725   89.7435   15.4868 C.ar    1  UNL1        0.0015
      7 C          64.3348   90.8300   15.8660 C.ar    1  UNL1        0.0001
      8 C          64.9108   91.7243   14.8085 C.ar    1  UNL1        0.0016
      9 C          64.5246   91.5322   13.3719 C.ar    1  UNL1        0.0207
     10 C          62.4880   89.5877   10.7005 C.ar    1  UNL1        0.0640
     11 C          61.4019   90.1647    9.8416 C.ar    1  UNL1        0.0176
     12 C          60.5207   89.2567    9.0360 C.ar    1  UNL1        0.0026
     13 C          60.7254   87.7717    9.0894 C.ar    1  UNL1        0.0141
     14 C          61.8114   87.1947    9.9483 C.ar    1  UNL1        0.0026
     15 C          62.6926   88.1027   10.7538 C.ar    1  UNL1        0.0176
     16 C          59.8441   86.8637    8.2838 C.2     1  UNL1        0.0729
     17 O          58.3707   87.1313    8.1975 O.co2   1  UNL1       -0.5446
     18 O          60.4363   85.6882    7.5646 O.co2   1  UNL1       -0.5446
     19 C          65.8751   93.4122   12.0352 C.2     1  UNL1        0.1976
     20 O          66.0820   94.3005   13.2259 O.2     1  UNL1       -0.2865
     21 C          68.1129   91.6019   11.1895 C.3     1  UNL1        0.0312
     22 C          67.7362   92.7773   10.3371 C.ar    1  UNL1       -0.0179
     23 C          68.4784   93.0475    9.0619 C.ar    1  UNL1       -0.0041
     24 C          68.1016   94.2229    8.2095 C.ar    1  UNL1        0.0005
     25 C          66.9827   95.1280    8.6323 C.ar    1  UNL1        0.0115
     26 C          66.2405   94.8578    9.9075 C.ar    1  UNL1        0.0604
     27 CL         65.1216   95.7629   10.3303 Cl      1  UNL1       -0.0822
     28 C          66.6173   93.6824   10.7599 C.ar    1  UNL1        0.0456
@<TRIPOS>UNITY_ATOM_ATTR
17 1
charge -1
@<TRIPOS>BOND
     1    21    22    1
     2    22    23   ar
     3    23    24   ar
     4    24    25   ar
     5    25    26   ar
     6    26    27    1
     7    26    28   ar
     8    28    19    1
     9    19    20    2
    10    19     1    1
    11     1     2   ar
    12     2     3   ar
    13     3    10    1
    14    10    11   ar
    15    11    12   ar
    16    12    13   ar
    17    13    16    1
    18    16    17   ar
    19    16    18   ar
    20    13    14   ar
    21    14    15   ar
    22     3     4   ar
    23     4     5   ar
    24     5     6   ar
    25     6     7   ar
    26     7     8   ar
    27     8     9   ar
    28    28    22   ar
    29     9     1   ar
    30    15    10   ar
    31     9     4   ar
@<TRIPOS>MOLECULE
*****
 28 31 0 0 0
SMALL
GASTEIGER

@<TRIPOS>ATOM
      1 C          64.9395   92.2590   12.1149 C.ar    1  UNL1        0.0579
      2 C          64.2218   91.6202   10.9630 C.ar    1  UNL1        0.0833
      3 N          63.3768   90.5053   11.5043 N.ar    1  UNL1       -0.3048
      4 C          63.5723   90.4551   12.9907 C.ar    1  UNL1        0.0641
      5 C          62.9956   89.5625   14.0493 C.ar    1  UNL1        0.0175
      6 C          63.3847   89.7538   15.4852 C.ar    1  UNL1        0.0015
      7 C          64.3505   90.8377   15.8626 C.ar    1  UNL1        0.0001
      8 C          64.9272   91.7303   14.8040 C.ar    1  UNL1        0.0016
      9 C          64.5381   91.5390   13.3681 C.ar    1  UNL1        0.0207
     10 C          62.4917   89.5995   10.7004 C.ar    1  UNL1        0.0640
     11 C          62.6901   88.1137   10.7567 C.ar    1  UNL1        0.0176
     12 C          61.8050   87.2079    9.9528 C.ar    1  UNL1        0.0026
     13 C          60.7216   87.7879    9.0926 C.ar    1  UNL1        0.0141
     14 C          60.5233   89.2737    9.0364 C.ar    1  UNL1        0.0026
     15 C          61.4084   90.1794    9.8403 C.ar    1  UNL1        0.0176
     16 C          59.8366   86.8822    8.2887 C.2     1  UNL1        0.0729
     17 O          60.4118   85.6650    7.6273 O.co2   1  UNL1       -0.5446
     18 O          58.3762   87.1937    8.1463 O.co2   1  UNL1       -0.5446
     19 C          65.8915   93.4150   12.0287 C.2     1  UNL1        0.1976
     20 O          66.1012   94.3042   13.2183 O.2     1  UNL1       -0.2865
     21 C          65.1942   95.8085   10.3600 C.3     1  UNL1        0.0312
     22 C          66.2852   94.8786    9.9184 C.ar    1  UNL1       -0.0179
     23 C          67.0275   95.1454    8.6426 C.ar    1  UNL1       -0.0041
     24 C          68.1184   94.2154    8.2011 C.ar    1  UNL1        0.0005
     25 C          68.4671   93.0186    9.0355 C.ar    1  UNL1        0.0115
     26 C          67.7248   92.7518   10.3113 C.ar    1  UNL1        0.0604
     27 CL         68.0734   91.5550   11.1457 Cl      1  UNL1       -0.0822
     28 C          66.6338   93.6818   10.7528 C.ar    1  UNL1        0.0456
@<TRIPOS>UNITY_ATOM_ATTR
17 1
charge -1
@<TRIPOS>BOND
     1    21    22    1
     2    22    23   ar
     3    23    24   ar
     4    24    25   ar
     5    25    26   ar
     6    26    27    1
     7    26    28   ar
     8    28    19    1
     9    19    20    2
    10    19     1    1
    11     1     2   ar
    12     2     3   ar
    13     3    10    1
    14    10    11   ar
    15    11    12   ar
    16    12    13   ar
    17    13    16    1
    18    16    17   ar
    19    16    18   ar
    20    13    14   ar
    21    14    15   ar
    22     3     4   ar
    23     4     5   ar
    24     5     6   ar
    25     6     7   ar
    26     7     8   ar
    27     8     9   ar
    28    28    22   ar
    29     9     1   ar
    30    15    10   ar
    31     9     4   ar
@<TRIPOS>MOLECULE
*****
 28 31 0 0 0
SMALL
GASTEIGER

@<TRIPOS>ATOM
      1 C          63.5786   85.7143   12.9169 C.ar    1  UNL1        0.0579
      2 C          62.7512   85.7784   11.6673 C.ar    1  UNL1        0.0833
      3 N          62.4253   87.2181   11.4007 N.ar    1  UNL1       -0.3048
      4 C          63.0512   88.0437   12.4854 C.ar    1  UNL1        0.0641
      5 C          63.0642   89.5217   12.7409 C.ar    1  UNL1        0.0175
      6 C          63.7899   90.0702   13.9335 C.ar    1  UNL1        0.0015
      7 C          64.5027   89.1408   14.8705 C.ar    1  UNL1        0.0001
      8 C          64.4897   87.6628   14.6150 C.ar    1  UNL1        0.0016
      9 C          63.7640   87.1143   13.4225 C.ar    1  UNL1        0.0207
     10 C          61.6156   87.7405   10.2511 C.ar    1  UNL1        0.0640
     11 C          61.3973   89.2165   10.0970 C.ar    1  UNL1        0.0176
     12 C          60.5875   89.7389    8.9474 C.ar    1  UNL1        0.0026
     13 C          59.9961   88.7853    7.9520 C.ar    1  UNL1        0.0141
     14 C          60.2144   87.3094    8.1061 C.ar    1  UNL1        0.0026
     15 C          61.0242   86.7870    9.2557 C.ar    1  UNL1        0.0176
     16 C          59.1864   89.3077    6.8024 C.2     1  UNL1        0.0729
     17 O          57.7107   89.0457    6.7442 O.co2   1  UNL1       -0.5446
     18 O          59.8526   90.0922    5.7112 O.co2   1  UNL1       -0.5446
     19 C          64.1247   84.4688   13.5497 C.2     1  UNL1        0.1976
     20 O          65.4355   84.5100   14.2775 O.2     1  UNL1       -0.2865
     21 C          64.5433   82.6445   11.2052 C.3     1  UNL1        0.0312
     22 C          63.5691   82.2697   12.2825 C.ar    1  UNL1       -0.0179
     23 C          62.8043   80.9829   12.1875 C.ar    1  UNL1       -0.0041
     24 C          61.8301   80.6082   13.2648 C.ar    1  UNL1        0.0005
     25 C          61.6208   81.5203   14.4371 C.ar    1  UNL1        0.0115
     26 C          62.3856   82.8071   14.5321 C.ar    1  UNL1        0.0604
     27 CL         62.1763   83.7192   15.7044 Cl      1  UNL1       -0.0822
     28 C          63.3598   83.1818   13.4548 C.ar    1  UNL1        0.0456
@<TRIPOS>UNITY_ATOM_ATTR
17 1
charge -1
@<TRIPOS>BOND
     1    21    22    1
     2    22    23   ar
     3    23    24   ar
     4    24    25   ar
     5    25    26   ar
     6    26    27    1
     7    26    28   ar
     8    28    19    1
     9    19    20    2
    10    19     1    1
    11     1     2   ar
    12     2     3   ar
    13     3    10    1
    14    10    11   ar
    15    11    12   ar
    16    12    13   ar
    17    13    16    1
    18    16    17   ar
    19    16    18   ar
    20    13    14   ar
    21    14    15   ar
    22     3     4   ar
    23     4     5   ar
    24     5     6   ar
    25     6     7   ar
    26     7     8   ar
    27     8     9   ar
    28    28    22   ar
    29     9     1   ar
    30    15    10   ar
    31     9     4   ar
@<TRIPOS>MOLECULE
*****
 28 31 0 0 0
SMALL
GASTEIGER

@<TRIPOS>ATOM
      1 C          63.5914   85.7260   12.9115 C.ar    1  UNL1        0.0579
      2 C          62.7646   85.7882   11.6615 C.ar    1  UNL1        0.0833
      3 N          62.4324   87.2267   11.3966 N.ar    1  UNL1       -0.3048
      4 C          63.0540   88.0537   12.4828 C.ar    1  UNL1        0.0641
      5 C          63.0604   89.5313   12.7403 C.ar    1  UNL1        0.0175
      6 C          63.7830   90.0815   13.9341 C.ar    1  UNL1        0.0015
      7 C          64.4993   89.1540   14.8703 C.ar    1  UNL1        0.0001
      8 C          64.4930   87.6763   14.6128 C.ar    1  UNL1        0.0016
      9 C          63.7703   87.1261   13.4191 C.ar    1  UNL1        0.0207
     10 C          61.6211   87.7471   10.2472 C.ar    1  UNL1        0.0640
     11 C          61.0295   86.7918    9.2535 C.ar    1  UNL1        0.0176
     12 C          60.2182   87.3121    8.1041 C.ar    1  UNL1        0.0026
     13 C          59.9985   88.7878    7.9485 C.ar    1  UNL1        0.0141
     14 C          60.5901   89.7430    8.9422 C.ar    1  UNL1        0.0026
     15 C          61.4014   89.2227   10.0915 C.ar    1  UNL1        0.0176
     16 C          59.1872   89.3081    6.7991 C.2     1  UNL1        0.0729
     17 O          59.8502   90.0982    5.7100 O.co2   1  UNL1       -0.5446
     18 O          57.7129   89.0384    6.7390 O.co2   1  UNL1       -0.5446
     19 C          64.1426   84.4821   13.5430 C.2     1  UNL1        0.1976
     20 O          65.4533   84.5280   14.2710 O.2     1  UNL1       -0.2865
     21 C          62.1621   83.7448   15.6723 C.3     1  UNL1        0.0312
     22 C          62.3928   82.8234   14.5113 C.ar    1  UNL1       -0.0179
     23 C          61.6333   81.5336   14.4149 C.ar    1  UNL1       -0.0041
     24 C          61.8640   80.6124   13.2538 C.ar    1  UNL1        0.0005
     25 C          62.8543   80.9810   12.1892 C.ar    1  UNL1        0.0115
     26 C          63.6138   82.2709   12.2855 C.ar    1  UNL1        0.0604
     27 CL         64.6041   82.6395   11.2209 Cl      1  UNL1       -0.0822
     28 C          63.3831   83.1921   13.4466 C.ar    1  UNL1        0.0456
@<TRIPOS>UNITY_ATOM_ATTR
17 1
charge -1
@<TRIPOS>BOND
     1    21    22    1
     2    22    23   ar
     3    23    24   ar
     4    24    25   ar
     5    25    26   ar
     6    26    27    1
     7    26    28   ar
     8    28    19    1
     9    19    20    2
    10    19     1    1
    11     1     2   ar
    12     2     3   ar
    13     3    10    1
    14    10    11   ar
    15    11    12   ar
    16    12    13   ar
    17    13    16    1
    18    16    17   ar
    19    16    18   ar
    20    13    14   ar
    21    14    15   ar
    22     3     4   ar
    23     4     5   ar
    24     5     6   ar
    25     6     7   ar
    26     7     8   ar
    27     8     9   ar
    28    28    22   ar
    29     9     1   ar
    30    15    10   ar
    31     9     4   ar
@<TRIPOS>MOLECULE
*****
 28 31 0 0 0
SMALL
GASTEIGER

@<TRIPOS>ATOM
      1 C          61.8877   88.8330   11.3952 C.ar    1  UNL1        0.0579
      2 C          62.3880   87.6579   12.1820 C.ar    1  UNL1        0.0833
      3 N          62.0503   86.4115   11.4188 N.ar    1  UNL1       -0.3048
      4 C          61.3414   86.8162   10.1604 C.ar    1  UNL1        0.0641
      5 C          60.7743   86.0154    9.0259 C.ar    1  UNL1        0.0175
      6 C          60.1068   86.7111    7.8769 C.ar    1  UNL1        0.0015
      7 C          60.0063   88.2077    7.8623 C.ar    1  UNL1        0.0001
      8 C          60.5734   89.0085    8.9968 C.ar    1  UNL1        0.0016
      9 C          61.2409   88.3128   10.1458 C.ar    1  UNL1        0.0207
     10 C          62.3661   85.0070   11.8401 C.ar    1  UNL1        0.0640
     11 C          62.7708   83.9895   10.8148 C.ar    1  UNL1        0.0176
     12 C          63.0866   82.5849   11.2361 C.ar    1  UNL1        0.0026
     13 C          62.9977   82.1978   12.6826 C.ar    1  UNL1        0.0141
     14 C          62.5931   83.2152   13.7077 C.ar    1  UNL1        0.0026
     15 C          62.2773   84.6198   13.2865 C.ar    1  UNL1        0.0176
     16 C          63.3136   80.7932   13.1038 C.2     1  UNL1        0.0729
     17 O          64.1472   80.5463   14.3261 O.co2   1  UNL1       -0.5446
     18 O          62.7957   79.6356   12.3028 O.co2   1  UNL1       -0.5446
     19 C          62.0124   90.2751   11.7887 C.2     1  UNL1        0.1976
     20 O          60.7880   91.1369   11.8774 O.2     1  UNL1       -0.2865
     21 C          63.1943   89.9652   14.5286 C.3     1  UNL1        0.0312
     22 C          63.9526   90.7004   13.4635 C.ar    1  UNL1       -0.0179
     23 C          65.3018   91.2806   13.7685 C.ar    1  UNL1       -0.0041
     24 C          66.0601   92.0158   12.7033 C.ar    1  UNL1        0.0005
     25 C          65.4692   92.1708   11.3334 C.ar    1  UNL1        0.0115
     26 C          64.1200   91.5906   11.0285 C.ar    1  UNL1        0.0604
     27 CL         63.5291   91.7455    9.6585 Cl      1  UNL1       -0.0822
     28 C          63.3617   90.8554   12.0936 C.ar    1  UNL1        0.0456
@<TRIPOS>UNITY_ATOM_ATTR
17 1
charge -1
@<TRIPOS>BOND
     1    21    22    1
     2    22    23   ar
     3    23    24   ar
     4    24    25   ar
     5    25    26   ar
     6    26    27    1
     7    26    28   ar
     8    28    19    1
     9    19    20    2
    10    19     1    1
    11     1     2   ar
    12     2     3   ar
    13     3    10    1
    14    10    11   ar
    15    11    12   ar
    16    12    13   ar
    17    13    16    1
    18    16    17   ar
    19    16    18   ar
    20    13    14   ar
    21    14    15   ar
    22     3     4   ar
    23     4     5   ar
    24     5     6   ar
    25     6     7   ar
    26     7     8   ar
    27     8     9   ar
    28    28    22   ar
    29     9     1   ar
    30    15    10   ar
    31     9     4   ar
@<TRIPOS>MOLECULE
*****
 28 31 0 0 0
SMALL
GASTEIGER

@<TRIPOS>ATOM
      1 C          62.2931   88.9979   11.5236 C.ar    1  UNL1        0.0579
      2 C          62.7786   87.7966   12.2793 C.ar    1  UNL1        0.0833
      3 N          62.3111   86.5711   11.5515 N.ar    1  UNL1       -0.3048
      4 C          61.5366   87.0151   10.3461 C.ar    1  UNL1        0.0641
      5 C          60.8401   86.2474    9.2619 C.ar    1  UNL1        0.0175
      6 C          60.1324   86.9795    8.1605 C.ar    1  UNL1        0.0015
      7 C          60.1213   88.4794    8.1433 C.ar    1  UNL1        0.0001
      8 C          60.8178   89.2471    9.2274 C.ar    1  UNL1        0.0016
      9 C          61.5255   88.5149   10.3288 C.ar    1  UNL1        0.0207
     10 C          62.5722   85.1510   11.9578 C.ar    1  UNL1        0.0640
     11 C          62.4319   84.7442   13.3949 C.ar    1  UNL1        0.0176
     12 C          62.6930   83.3240   13.8012 C.ar    1  UNL1        0.0026
     13 C          63.0944   82.3108   12.7706 C.ar    1  UNL1        0.0141
     14 C          63.2346   82.7176   11.3337 C.ar    1  UNL1        0.0026
     15 C          62.9735   84.1377   10.9273 C.ar    1  UNL1        0.0176
     16 C          63.3555   80.8906   13.1769 C.2     1  UNL1        0.0729
     17 O          64.1952   80.5985   14.3850 O.co2   1  UNL1       -0.5446
     18 O          62.7768   79.7627   12.3751 O.co2   1  UNL1       -0.5446
     19 C          62.5330   90.4307   11.8971 C.2     1  UNL1        0.1976
     20 O          61.4813   91.4640   11.6211 O.2     1  UNL1       -0.2865
     21 C          64.5570   92.0220   10.3573 C.3     1  UNL1        0.0312
     22 C          64.8368   91.6259   11.7768 C.ar    1  UNL1       -0.0179
     23 C          66.1284   92.0255   12.4263 C.ar    1  UNL1       -0.0041
     24 C          66.4081   91.6294   13.8458 C.ar    1  UNL1        0.0005
     25 C          65.3961   90.8337   14.6157 C.ar    1  UNL1        0.0115
     26 C          64.1044   90.4342   13.9662 C.ar    1  UNL1        0.0604
     27 CL         63.0924   89.6385   14.7361 Cl      1  UNL1       -0.0822
     28 C          63.8247   90.8303   12.5467 C.ar    1  UNL1        0.0456
@<TRIPOS>UNITY_ATOM_ATTR
17 1
charge -1
@<TRIPOS>BOND
     1    21    22    1
     2    22    23   ar
     3    23    24   ar
     4    24    25   ar
     5    25    26   ar
     6    26    27    1
     7    26    28   ar
     8    28    19    1
     9    19    20    2
    10    19     1    1
    11     1     2   ar
    12     2     3   ar
    13     3    10    1
    14    10    11   ar
    15    11    12   ar
    16    12    13   ar
    17    13    16    1
    18    16    17   ar
    19    16    18   ar
    20    13    14   ar
    21    14    15   ar
    22     3     4   ar
    23     4     5   ar
    24     5     6   ar
    25     6     7   ar
    26     7     8   ar
    27     8     9   ar
    28    28    22   ar
    29     9     1   ar
    30    15    10   ar
    31     9     4   ar
@<TRIPOS>MOLECULE
*****
 28 31 0 0 0
SMALL
GASTEIGER

@<TRIPOS>ATOM
      1 C          63.8838   89.2203   14.7403 C.ar    1  UNL1        0.0579
      2 C          64.0155   88.2758   13.5825 C.ar    1  UNL1        0.0833
      3 N          63.7039   86.8934   14.0742 N.ar    1  UNL1       -0.3048
      4 C          63.3796   86.9835   15.5360 C.ar    1  UNL1        0.0641
      5 C          62.9975   85.9418   16.5454 C.ar    1  UNL1        0.0175
      6 C          62.7265   86.3383   17.9664 C.ar    1  UNL1        0.0015
      7 C          62.8377   87.7764   18.3780 C.ar    1  UNL1        0.0001
      8 C          63.2199   88.8180   17.3687 C.ar    1  UNL1        0.0016
      9 C          63.4908   88.4216   15.9477 C.ar    1  UNL1        0.0207
     10 C          63.7147   85.6408   13.2491 C.ar    1  UNL1        0.0640
     11 C          62.8542   85.5420   12.0244 C.ar    1  UNL1        0.0176
     12 C          62.8649   84.2893   11.1993 C.ar    1  UNL1        0.0026
     13 C          63.7362   83.1355   11.5988 C.ar    1  UNL1        0.0141
     14 C          64.5966   83.2343   12.8235 C.ar    1  UNL1        0.0026
     15 C          64.5859   84.4870   13.6486 C.ar    1  UNL1        0.0176
     16 C          63.7469   81.8829   10.7737 C.2     1  UNL1        0.0729
     17 O          62.8416   80.7416   11.1311 O.co2   1  UNL1       -0.5446
     18 O          64.6631   81.7716    9.5913 O.co2   1  UNL1       -0.5446
     19 C          64.1061   90.7031   14.6983 C.2     1  UNL1        0.1976
     20 O          63.5625   91.5743   15.7915 O.2     1  UNL1       -0.2865
     21 C          66.9525   91.5617   15.0992 C.3     1  UNL1        0.0312
     22 C          66.2953   91.7441   13.7632 C.ar    1  UNL1       -0.0179
     23 C          67.0612   92.3557   12.6278 C.ar    1  UNL1       -0.0041
     24 C          66.4039   92.5380   11.2919 C.ar    1  UNL1        0.0005
     25 C          64.9807   92.1088   11.0914 C.ar    1  UNL1        0.0115
     26 C          64.2148   91.4971   12.2268 C.ar    1  UNL1        0.0604
     27 CL         62.7916   91.0678   12.0263 Cl      1  UNL1       -0.0822
     28 C          64.8721   91.3148   13.5627 C.ar    1  UNL1        0.0456
@<TRIPOS>UNITY_ATOM_ATTR
17 1
charge -1
@<TRIPOS>BOND
     1    21    22    1
     2    22    23   ar
     3    23    24   ar
     4    24    25   ar
     5    25    26   ar
     6    26    27    1
     7    26    28   ar
     8    28    19    1
     9    19    20    2
    10    19     1    1
    11     1     2   ar
    12     2     3   ar
    13     3    10    1
    14    10    11   ar
    15    11    12   ar
    16    12    13   ar
    17    13    16    1
    18    16    17   ar
    19    16    18   ar
    20    13    14   ar
    21    14    15   ar
    22     3     4   ar
    23     4     5   ar
    24     5     6   ar
    25     6     7   ar
    26     7     8   ar
    27     8     9   ar
    28    28    22   ar
    29     9     1   ar
    30    15    10   ar
    31     9     4   ar
@<TRIPOS>MOLECULE
*****
 28 31 0 0 0
SMALL
GASTEIGER

@<TRIPOS>ATOM
      1 C          63.8798   89.2081   14.7390 C.ar    1  UNL1        0.0579
      2 C          64.0122   88.2656   13.5796 C.ar    1  UNL1        0.0833
      3 N          63.7025   86.8820   14.0693 N.ar    1  UNL1       -0.3048
      4 C          63.3786   86.9694   15.5313 C.ar    1  UNL1        0.0641
      5 C          62.9981   85.9257   16.5391 C.ar    1  UNL1        0.0175
      6 C          62.7272   86.3195   17.9609 C.ar    1  UNL1        0.0015
      7 C          62.8368   87.7571   18.3748 C.ar    1  UNL1        0.0001
      8 C          63.2173   88.8008   17.3670 C.ar    1  UNL1        0.0016
      9 C          63.4882   88.4070   15.9452 C.ar    1  UNL1        0.0207
     10 C          63.7144   85.6308   13.2421 C.ar    1  UNL1        0.0640
     11 C          64.5826   84.4750   13.6429 C.ar    1  UNL1        0.0176
     12 C          64.5946   83.2237   12.8158 C.ar    1  UNL1        0.0026
     13 C          63.7384   83.1281   11.5879 C.ar    1  UNL1        0.0141
     14 C          62.8702   84.2838   11.1871 C.ar    1  UNL1        0.0026
     15 C          62.8583   85.5351   12.0143 C.ar    1  UNL1        0.0176
     16 C          63.7503   81.8768   10.7608 C.2     1  UNL1        0.0729
     17 O          64.6679   81.7676    9.5792 O.co2   1  UNL1       -0.5446
     18 O          62.8448   80.7348   11.1153 O.co2   1  UNL1       -0.5446
     19 C          64.1003   90.6912   14.6992 C.2     1  UNL1        0.1976
     20 O          63.5321   91.5632   15.7793 O.2     1  UNL1       -0.2865
     21 C          62.8394   91.0571   12.0018 C.3     1  UNL1        0.0312
     22 C          64.2587   91.4854   12.2305 C.ar    1  UNL1       -0.0179
     23 C          65.0474   92.0966   11.1106 C.ar    1  UNL1       -0.0041
     24 C          66.4666   92.5249   11.3394 C.ar    1  UNL1        0.0005
     25 C          67.0971   92.3419   12.6881 C.ar    1  UNL1        0.0115
     26 C          66.3084   91.7307   13.8080 C.ar    1  UNL1        0.0604
     27 CL         66.9389   91.5478   15.1567 Cl      1  UNL1       -0.0822
     28 C          64.8891   91.3025   13.5792 C.ar    1  UNL1        0.0456
@<TRIPOS>UNITY_ATOM_ATTR
17 1
charge -1
@<TRIPOS>BOND
     1    21    22    1
     2    22    23   ar
     3    23    24   ar
     4    24    25   ar
     5    25    26   ar
     6    26    27    1
     7    26    28   ar
     8    28    19    1
     9    19    20    2
    10    19     1    1
    11     1     2   ar
    12     2     3   ar
    13     3    10    1
    14    10    11   ar
    15    11    12   ar
    16    12    13   ar
    17    13    16    1
    18    16    17   ar
    19    16    18   ar
    20    13    14   ar
    21    14    15   ar
    22     3     4   ar
    23     4     5   ar
    24     5     6   ar
    25     6     7   ar
    26     7     8   ar
    27     8     9   ar
    28    28    22   ar
    29     9     1   ar
    30    15    10   ar
    31     9     4   ar
