@<TRIPOS>MOLECULE
*****
 34 38 0 0 0
SMALL
GASTEIGER

@<TRIPOS>ATOM
      1 C          64.7017   91.5166   12.8579 C.ar    1  UNL1        0.0503
      2 C          63.6361   90.4694   12.7237 C.ar    1  UNL1        0.0143
      3 C          63.1861   89.6986   13.9293 C.ar    1  UNL1       -0.0029
      4 C          63.8016   89.9749   15.2689 C.ar    1  UNL1       -0.0208
      5 C          64.8672   91.0220   15.4031 C.ar    1  UNL1       -0.0029
      6 C          65.3173   91.7929   14.1976 C.ar    1  UNL1        0.0143
      7 O          67.6096   92.1520   12.4834 O.2     1  UNL1       -0.2744
      8 C          66.6057   92.6051   11.4651 C.2     1  UNL1        0.2313
      9 N          65.1517   92.2874   11.6524 N.am    1  UNL1       -0.2836
     10 H          64.4928   92.5848   10.9841 H       1  UNL1        0.1549
     11 C          67.0558   93.3760   10.2596 C.3     1  UNL1        0.1173
     12 C          68.1249   92.9576    9.2941 C.3     1  UNL1        0.0204
     13 C          68.2455   94.0236    8.2457 C.3     1  UNL1        0.0351
     14 C          67.2511   95.1008    8.5632 C.ar    1  UNL1        0.0227
     15 S          66.7111   96.4253    8.1115 S.2     1  UNL1       -0.0692
     16 C          65.6420   96.8436    9.0769 C.ar    1  UNL1        0.1338
     17 N          65.5213   95.7776   10.1254 N.ar    1  UNL1       -0.2405
     18 C          66.5158   94.7005    9.8079 C.ar    1  UNL1        0.0699
     19 C          63.3516   89.2040   16.4744 C.3     1  UNL1        0.0420
     20 C          63.2493   87.7088   16.4134 C.3     1  UNL1        0.0585
     21 C          62.4490   86.8413   17.3389 C.3     1  UNL1        0.0175
     22 C          62.6345   85.4149   16.9136 C.3     1  UNL1        0.0199
     23 C          63.5495   85.4008   15.7251 C.3     1  UNL1        0.0856
     24 N          63.9295   86.8186   15.4160 N.3     1  UNL1       -0.2971
     25 H          63.6261   87.0604   14.4726 H       1  UNL1        0.1233
     26 C          64.0046   84.1829   14.9771 C.3     1  UNL1        0.1484
     27 O          64.6522   83.0484   15.7144 O.3     1  UNL1       -0.3786
     28 H          64.8842   82.3458   15.0872 H       1  UNL1        0.2108
     29 C          63.8121   84.0994   13.4919 C.ar    1  UNL1        0.0247
     30 C          62.7181   84.8855   12.8320 C.ar    1  UNL1        0.0012
     31 C          62.5257   84.8020   11.3467 C.ar    1  UNL1        0.0204
     32 C          63.4272   83.9326   10.5213 C.ar    1  UNL1        0.0989
     33 N          64.5212   83.1465   11.1812 N.ar    1  UNL1       -0.2426
     34 C          64.7137   83.2300   12.6665 C.ar    1  UNL1        0.0969
@<TRIPOS>BOND
     1     7     8    2
     2     8     9   am
     3     9     1    1
     4     1     2   ar
     5     2     3   ar
     6     3     4   ar
     7     4    19    1
     8    20    19    1
     9    20    21    1
    10    21    22    1
    11    23    22    1
    12    23    26    1
    13    26    27    1
    14    26    29    1
    15    29    30   ar
    16    30    31   ar
    17    31    32   ar
    18    32    33   ar
    19    33    34   ar
    20    23    24    1
    21     4     5   ar
    22     5     6   ar
    23    11     8    1
    24    11    12    1
    25    12    13    1
    26    13    14    1
    27    14    15   ar
    28    15    16   ar
    29    16    17   ar
    30    17    18   ar
    31     6     1   ar
    32    18    11    1
    33    24    20    1
    34    18    14   ar
    35    34    29   ar
    36     9    10    1
    37    27    28    1
    38    24    25    1
@<TRIPOS>MOLECULE
*****
 34 38 0 0 0
SMALL
GASTEIGER

@<TRIPOS>ATOM
      1 C          60.6227   87.1380    9.1282 C.ar    1  UNL1        0.0503
      2 C          60.8120   88.6156    9.3028 C.ar    1  UNL1        0.0143
      3 C          60.1177   89.5747    8.3819 C.ar    1  UNL1       -0.0029
      4 C          59.2343   89.0561    7.2862 C.ar    1  UNL1       -0.0208
      5 C          59.0450   87.5784    7.1115 C.ar    1  UNL1       -0.0029
      6 C          59.7393   86.6193    8.0324 C.ar    1  UNL1        0.0143
      7 O          62.9672   85.5450    8.1452 O.2     1  UNL1       -0.2744
      8 C          62.4892   85.3824    9.5576 C.2     1  UNL1        0.2313
      9 N          61.3170   86.1789   10.0491 N.am    1  UNL1       -0.2836
     10 H          61.0032   86.0721   10.9762 H       1  UNL1        0.1549
     11 C          63.1834   84.4233   10.4786 C.3     1  UNL1        0.1173
     12 C          64.0469   83.2695   10.0622 C.3     1  UNL1        0.0204
     13 C          64.5332   82.5828   11.3040 C.3     1  UNL1        0.0351
     14 C          63.9703   83.3120   12.4878 C.ar    1  UNL1        0.0227
     15 S          63.9229   83.3382   13.9868 S.2     1  UNL1       -0.0692
     16 C          63.0594   84.4920   14.4031 C.ar    1  UNL1        0.1338
     17 N          62.5731   85.1788   13.1614 N.ar    1  UNL1       -0.2405
     18 C          63.1361   84.4495   11.9776 C.ar    1  UNL1        0.0699
     19 C          58.5401   90.0152    6.3652 C.3     1  UNL1        0.0420
     20 C          59.3397   90.8446    5.4047 C.3     1  UNL1        0.0585
     21 C          58.8836   92.1098    4.7406 C.3     1  UNL1        0.0175
     22 C          59.9978   92.6016    3.8651 C.3     1  UNL1        0.0199
     23 C          61.1426   91.6402    3.9880 C.3     1  UNL1        0.0856
     24 N          60.7359   90.5544    4.9395 N.3     1  UNL1       -0.2971
     25 H          61.3704   90.5382    5.7380 H       1  UNL1        0.1233
     26 C          62.4625   91.7461    3.2832 C.3     1  UNL1        0.1484
     27 O          63.6568   91.0089    3.8125 O.3     1  UNL1       -0.3786
     28 H          64.4230   91.1841    3.2441 H       1  UNL1        0.2108
     29 C          62.5881   92.5893    2.0489 C.ar    1  UNL1        0.0247
     30 C          61.7109   92.3179    0.8627 C.ar    1  UNL1        0.0012
     31 C          61.8365   93.1611   -0.3715 C.ar    1  UNL1        0.0204
     32 C          62.8393   94.2756   -0.4196 C.ar    1  UNL1        0.0989
     33 N          63.7165   94.5469    0.7666 N.ar    1  UNL1       -0.2426
     34 C          63.5909   93.7038    2.0008 C.ar    1  UNL1        0.0969
@<TRIPOS>BOND
     1     7     8    2
     2     8     9   am
     3     9     1    1
     4     1     2   ar
     5     2     3   ar
     6     3     4   ar
     7     4    19    1
     8    20    19    1
     9    20    21    1
    10    21    22    1
    11    23    22    1
    12    23    26    1
    13    26    27    1
    14    26    29    1
    15    29    30   ar
    16    30    31   ar
    17    31    32   ar
    18    32    33   ar
    19    33    34   ar
    20    23    24    1
    21     4     5   ar
    22     5     6   ar
    23    11     8    1
    24    11    12    1
    25    12    13    1
    26    13    14    1
    27    14    15   ar
    28    15    16   ar
    29    16    17   ar
    30    17    18   ar
    31     6     1   ar
    32    18    11    1
    33    24    20    1
    34    18    14   ar
    35    34    29   ar
    36     9    10    1
    37    27    28    1
    38    24    25    1
@<TRIPOS>MOLECULE
*****
 34 38 0 0 0
SMALL
GASTEIGER

@<TRIPOS>ATOM
      1 C          63.5941   86.5657   13.3429 C.ar    1  UNL1        0.0503
      2 C          63.0959   87.6126   12.3912 C.ar    1  UNL1        0.0143
      3 C          63.2390   89.0661   12.7330 C.ar    1  UNL1       -0.0029
      4 C          63.8803   89.4728   14.0265 C.ar    1  UNL1       -0.0208
      5 C          64.3786   88.4259   14.9783 C.ar    1  UNL1       -0.0029
      6 C          64.2355   86.9724   14.6365 C.ar    1  UNL1        0.0143
      7 O          61.9943   84.7567   15.1228 O.2     1  UNL1       -0.2744
      8 C          62.6511   84.2077   13.8911 C.2     1  UNL1        0.2313
      9 N          63.4511   85.1122   13.0011 N.am    1  UNL1       -0.2836
     10 H          63.8821   84.7519   12.1926 H       1  UNL1        0.1549
     11 C          62.5080   82.7542   13.5493 C.3     1  UNL1        0.1173
     12 C          61.9475   81.6890   14.4444 C.3     1  UNL1        0.0204
     13 C          61.9934   80.3871   13.7006 C.3     1  UNL1        0.0351
     14 C          62.5823   80.6477   12.3459 C.ar    1  UNL1        0.0227
     15 S          62.9746   80.0042   11.0490 S.2     1  UNL1       -0.0692
     16 C          63.5351   81.0694   10.1539 C.ar    1  UNL1        0.1338
     17 N          63.4892   82.3713   10.8976 N.ar    1  UNL1       -0.2405
     18 C          62.9003   82.1107   12.2524 C.ar    1  UNL1        0.0699
     19 C          64.0234   90.9263   14.3683 C.3     1  UNL1        0.0420
     20 C          65.1327   91.7336   13.7621 C.3     1  UNL1        0.0585
     21 C          66.1309   92.5640   14.5129 C.3     1  UNL1        0.0175
     22 C          67.0537   93.1959   13.5134 C.3     1  UNL1        0.0199
     23 C          66.6257   92.7561   12.1447 C.3     1  UNL1        0.0856
     24 N          65.4385   91.8523   12.2984 N.3     1  UNL1       -0.2971
     25 H          65.6519   90.9321   11.9136 H       1  UNL1        0.1233
     26 C          67.2716   93.1508   10.8497 C.3     1  UNL1        0.1484
     27 O          68.3751   92.3123   10.2757 O.3     1  UNL1       -0.3786
     28 H          68.6792   92.7045    9.4424 H       1  UNL1        0.2108
     29 C          66.8141   94.3839   10.1285 C.ar    1  UNL1        0.0247
     30 C          67.4327   94.7570    8.8138 C.ar    1  UNL1        0.0012
     31 C          66.9751   95.9901    8.0927 C.ar    1  UNL1        0.0204
     32 C          65.8990   96.8502    8.6862 C.ar    1  UNL1        0.0989
     33 N          65.2804   96.4771   10.0009 N.ar    1  UNL1       -0.2426
     34 C          65.7379   95.2440   10.7220 C.ar    1  UNL1        0.0969
@<TRIPOS>BOND
     1     7     8    2
     2     8     9   am
     3     9     1    1
     4     1     2   ar
     5     2     3   ar
     6     3     4   ar
     7     4    19    1
     8    20    19    1
     9    20    21    1
    10    21    22    1
    11    23    22    1
    12    23    26    1
    13    26    27    1
    14    26    29    1
    15    29    30   ar
    16    30    31   ar
    17    31    32   ar
    18    32    33   ar
    19    33    34   ar
    20    23    24    1
    21     4     5   ar
    22     5     6   ar
    23    11     8    1
    24    11    12    1
    25    12    13    1
    26    13    14    1
    27    14    15   ar
    28    15    16   ar
    29    16    17   ar
    30    17    18   ar
    31     6     1   ar
    32    18    11    1
    33    24    20    1
    34    18    14   ar
    35    34    29   ar
    36     9    10    1
    37    27    28    1
    38    24    25    1
@<TRIPOS>MOLECULE
*****
 34 38 0 0 0
SMALL
GASTEIGER

@<TRIPOS>ATOM
      1 C          63.5201   87.0523   13.4540 C.ar    1  UNL1        0.0503
      2 C          63.4802   88.3435   12.6917 C.ar    1  UNL1        0.0143
      3 C          63.7756   89.6370   13.3914 C.ar    1  UNL1       -0.0029
      4 C          64.1109   89.6393   14.8534 C.ar    1  UNL1       -0.0208
      5 C          64.1509   88.3480   15.6158 C.ar    1  UNL1       -0.0029
      6 C          63.8555   87.0545   14.9161 C.ar    1  UNL1        0.0143
      7 O          65.1887   84.6246   14.0218 O.2     1  UNL1       -0.2744
      8 C          64.0591   84.5449   13.0382 C.2     1  UNL1        0.2313
      9 N          63.2248   85.7588   12.7542 N.am    1  UNL1       -0.2836
     10 H          62.4833   85.7065   12.1086 H       1  UNL1        0.1549
     11 C          63.7637   83.2514   12.3385 C.3     1  UNL1        0.1173
     12 C          63.9858   82.9657   10.8827 C.3     1  UNL1        0.0204
     13 C          63.5537   81.5542   10.6162 C.3     1  UNL1        0.0351
     14 C          63.0645   80.9676   11.9072 C.ar    1  UNL1        0.0227
     15 S          62.4951   79.7327   12.5403 S.2     1  UNL1       -0.0692
     16 C          62.2730   80.0184   13.9959 C.ar    1  UNL1        0.1338
     17 N          62.7051   81.4299   14.2625 N.ar    1  UNL1       -0.2405
     18 C          63.1943   82.0165   12.9716 C.ar    1  UNL1        0.0699
     19 C          64.4063   90.9328   15.5531 C.3     1  UNL1        0.0420
     20 C          65.2811   91.9585   14.8955 C.3     1  UNL1        0.0585
     21 C          66.5286   92.5559   15.4758 C.3     1  UNL1        0.0175
     22 C          67.0805   93.5335   14.4810 C.3     1  UNL1        0.0199
     23 C          66.1742   93.5403   13.2859 C.3     1  UNL1        0.0856
     24 N          65.0621   92.5668   13.5420 N.3     1  UNL1       -0.2971
     25 H          65.0696   91.8373   12.8293 H       1  UNL1        0.1233
     26 C          66.3492   94.3741   12.0513 C.3     1  UNL1        0.1484
     27 O          65.8067   95.7719   12.0072 O.3     1  UNL1       -0.3786
     28 H          66.0040   96.1681   11.1440 H       1  UNL1        0.2108
     29 C          67.0666   93.8101   10.8609 C.ar    1  UNL1        0.0247
     30 C          67.5856   92.4031   10.8951 C.ar    1  UNL1        0.0012
     31 C          68.3031   91.8391    9.7047 C.ar    1  UNL1        0.0204
     32 C          68.5016   92.6821    8.4799 C.ar    1  UNL1        0.0989
     33 N          67.9826   94.0891    8.4457 N.ar    1  UNL1       -0.2426
     34 C          67.2651   94.6531    9.6361 C.ar    1  UNL1        0.0969
@<TRIPOS>BOND
     1     7     8    2
     2     8     9   am
     3     9     1    1
     4     1     2   ar
     5     2     3   ar
     6     3     4   ar
     7     4    19    1
     8    20    19    1
     9    20    21    1
    10    21    22    1
    11    23    22    1
    12    23    26    1
    13    26    27    1
    14    26    29    1
    15    29    30   ar
    16    30    31   ar
    17    31    32   ar
    18    32    33   ar
    19    33    34   ar
    20    23    24    1
    21     4     5   ar
    22     5     6   ar
    23    11     8    1
    24    11    12    1
    25    12    13    1
    26    13    14    1
    27    14    15   ar
    28    15    16   ar
    29    16    17   ar
    30    17    18   ar
    31     6     1   ar
    32    18    11    1
    33    24    20    1
    34    18    14   ar
    35    34    29   ar
    36     9    10    1
    37    27    28    1
    38    24    25    1
@<TRIPOS>MOLECULE
*****
 34 38 0 0 0
SMALL
GASTEIGER

@<TRIPOS>ATOM
      1 C          64.3437   91.0796   13.7863 C.ar    1  UNL1        0.0503
      2 C          64.0478   91.4370   15.2127 C.ar    1  UNL1        0.0143
      3 C          63.7235   90.3591   16.2042 C.ar    1  UNL1       -0.0029
      4 C          63.6952   88.9238   15.7693 C.ar    1  UNL1       -0.0208
      5 C          63.9912   88.5664   14.3428 C.ar    1  UNL1       -0.0029
      6 C          64.3154   89.6442   13.3513 C.ar    1  UNL1        0.0143
      7 O          67.0678   92.3362   13.7740 O.2     1  UNL1       -0.2744
      8 C          66.0301   92.7858   12.7886 C.2     1  UNL1        0.2313
      9 N          64.6680   92.1574   12.7948 N.am    1  UNL1       -0.2836
     10 H          63.9868   92.4525   12.1481 H       1  UNL1        0.1549
     11 C          66.3543   93.8636   11.7971 C.3     1  UNL1        0.1173
     12 C          66.0200   95.3193   11.9364 C.3     1  UNL1        0.0204
     13 C          66.5289   96.0304   10.7176 C.3     1  UNL1        0.0351
     14 C          67.1777   95.0142    9.8251 C.ar    1  UNL1        0.0227
     15 S          67.8931   94.8257    8.5203 S.2     1  UNL1       -0.0692
     16 C          68.2273   93.3701    8.3810 C.ar    1  UNL1        0.1338
     17 N          67.7185   92.6590    9.5998 N.ar    1  UNL1       -0.2405
     18 C          67.0697   93.6751   10.4923 C.ar    1  UNL1        0.0699
     19 C          63.3710   87.8460   16.7608 C.3     1  UNL1        0.0420
     20 C          63.1041   86.4477   16.2880 C.3     1  UNL1        0.0585
     21 C          62.1276   85.4836   16.8936 C.3     1  UNL1        0.0175
     22 C          62.1868   84.2080   16.1066 C.3     1  UNL1        0.0199
     23 C          63.2000   84.3838   15.0145 C.3     1  UNL1        0.0856
     24 N          63.7669   85.7680   15.1267 N.3     1  UNL1       -0.2971
     25 H          63.5816   86.2885   14.2693 H       1  UNL1        0.1233
     26 C          63.5796   83.3559   13.9902 C.3     1  UNL1        0.1484
     27 O          64.0410   81.9970   14.4265 O.3     1  UNL1       -0.3786
     28 H          64.2453   81.4588   13.6458 H       1  UNL1        0.2108
     29 C          63.4978   83.6869   12.5295 C.ar    1  UNL1        0.0247
     30 C          64.3059   82.9048   11.5367 C.ar    1  UNL1        0.0012
     31 C          64.2240   83.2358   10.0760 C.ar    1  UNL1        0.0204
     32 C          63.3342   84.3489    9.6079 C.ar    1  UNL1        0.0989
     33 N          62.5261   85.1310   10.6006 N.ar    1  UNL1       -0.2426
     34 C          62.6079   84.8000   12.0614 C.ar    1  UNL1        0.0969
@<TRIPOS>BOND
     1     7     8    2
     2     8     9   am
     3     9     1    1
     4     1     2   ar
     5     2     3   ar
     6     3     4   ar
     7     4    19    1
     8    20    19    1
     9    20    21    1
    10    21    22    1
    11    23    22    1
    12    23    26    1
    13    26    27    1
    14    26    29    1
    15    29    30   ar
    16    30    31   ar
    17    31    32   ar
    18    32    33   ar
    19    33    34   ar
    20    23    24    1
    21     4     5   ar
    22     5     6   ar
    23    11     8    1
    24    11    12    1
    25    12    13    1
    26    13    14    1
    27    14    15   ar
    28    15    16   ar
    29    16    17   ar
    30    17    18   ar
    31     6     1   ar
    32    18    11    1
    33    24    20    1
    34    18    14   ar
    35    34    29   ar
    36     9    10    1
    37    27    28    1
    38    24    25    1
@<TRIPOS>MOLECULE
*****
 34 38 0 0 0
SMALL
GASTEIGER

@<TRIPOS>ATOM
      1 C          61.2222   87.0122    9.1010 C.ar    1  UNL1        0.0503
      2 C          60.3162   86.4231    8.0609 C.ar    1  UNL1        0.0143
      3 C          59.4530   87.3195    7.2234 C.ar    1  UNL1       -0.0029
      4 C          59.4959   88.8051    7.4262 C.ar    1  UNL1       -0.0208
      5 C          60.4020   89.3943    8.4664 C.ar    1  UNL1       -0.0029
      6 C          61.2652   88.4978    9.3038 C.ar    1  UNL1        0.0143
      7 O          60.8812   86.9578   12.0811 O.2     1  UNL1       -0.2744
      8 C          61.9149   86.0885   11.4285 C.2     1  UNL1        0.2313
      9 N          62.0854   86.1157    9.9385 N.am    1  UNL1       -0.2836
     10 H          62.7638   85.5452    9.5101 H       1  UNL1        0.1549
     11 C          62.7781   85.1921   12.2660 C.3     1  UNL1        0.1173
     12 C          63.6978   85.6307   13.3669 C.3     1  UNL1        0.0204
     13 C          64.3612   84.4092   13.9308 C.3     1  UNL1        0.0351
     14 C          63.8515   83.2158   13.1785 C.ar    1  UNL1        0.0227
     15 S          63.9466   81.7233   13.0622 S.2     1  UNL1       -0.0692
     16 C          63.0269   81.2848   11.9613 C.ar    1  UNL1        0.1338
     17 N          62.3635   82.5062   11.3973 N.ar    1  UNL1       -0.2405
     18 C          62.8731   83.6996   12.1496 C.ar    1  UNL1        0.0699
     19 C          58.6327   89.7016    6.5888 C.3     1  UNL1        0.0420
     20 C          59.2599   90.6211    5.5833 C.3     1  UNL1        0.0585
     21 C          58.6113   91.8225    4.9621 C.3     1  UNL1        0.0175
     22 C          59.5964   92.4446    4.0173 C.3     1  UNL1        0.0199
     23 C          60.8538   91.6276    4.0546 C.3     1  UNL1        0.0856
     24 N          60.6459   90.5006    5.0224 N.3     1  UNL1       -0.2971
     25 H          61.3307   90.5607    5.7759 H       1  UNL1        0.1233
     26 C          62.1004   91.8913    3.2629 C.3     1  UNL1        0.1484
     27 O          63.4199   91.3649    3.7442 O.3     1  UNL1       -0.3786
     28 H          64.1174   91.6224    3.1212 H       1  UNL1        0.2108
     29 C          62.0274   92.6815    1.9901 C.ar    1  UNL1        0.0247
     30 C          61.2826   92.1336    0.8088 C.ar    1  UNL1        0.0012
     31 C          61.2096   92.9238   -0.4641 C.ar    1  UNL1        0.0204
     32 C          61.8813   94.2619   -0.5558 C.ar    1  UNL1        0.0989
     33 N          62.6261   94.8097    0.6255 N.ar    1  UNL1       -0.2426
     34 C          62.6991   94.0196    1.8983 C.ar    1  UNL1        0.0969
@<TRIPOS>BOND
     1     7     8    2
     2     8     9   am
     3     9     1    1
     4     1     2   ar
     5     2     3   ar
     6     3     4   ar
     7     4    19    1
     8    20    19    1
     9    20    21    1
    10    21    22    1
    11    23    22    1
    12    23    26    1
    13    26    27    1
    14    26    29    1
    15    29    30   ar
    16    30    31   ar
    17    31    32   ar
    18    32    33   ar
    19    33    34   ar
    20    23    24    1
    21     4     5   ar
    22     5     6   ar
    23    11     8    1
    24    11    12    1
    25    12    13    1
    26    13    14    1
    27    14    15   ar
    28    15    16   ar
    29    16    17   ar
    30    17    18   ar
    31     6     1   ar
    32    18    11    1
    33    24    20    1
    34    18    14   ar
    35    34    29   ar
    36     9    10    1
    37    27    28    1
    38    24    25    1
@<TRIPOS>MOLECULE
*****
 34 38 0 0 0
SMALL
GASTEIGER

@<TRIPOS>ATOM
      1 C          59.5852   92.2974    4.1222 C.ar    1  UNL1        0.0503
      2 C          58.2099   91.9175    4.5848 C.ar    1  UNL1        0.0143
      3 C          58.0290   90.7769    5.5421 C.ar    1  UNL1       -0.0029
      4 C          59.2234   90.0162    6.0366 C.ar    1  UNL1       -0.0208
      5 C          60.5988   90.3961    5.5740 C.ar    1  UNL1       -0.0029
      6 C          60.7797   91.5367    4.6167 C.ar    1  UNL1        0.0143
      7 O          61.8242   92.2399    2.1263 O.2     1  UNL1       -0.2744
      8 C          60.8856   93.4092    2.1669 C.2     1  UNL1        0.2313
      9 N          59.7661   93.4380    3.1649 N.am    1  UNL1       -0.2836
     10 H          59.1500   94.2055    3.1916 H       1  UNL1        0.1549
     11 C          61.0665   94.5498    1.2097 C.3     1  UNL1        0.1173
     12 C          60.1300   95.7079    1.0310 C.3     1  UNL1        0.0204
     13 C          60.7004   96.6064   -0.0261 C.3     1  UNL1        0.0351
     14 C          61.9893   96.0037   -0.5007 C.ar    1  UNL1        0.0227
     15 S          63.1384   96.1865   -1.4474 S.2     1  UNL1       -0.0692
     16 C          64.0748   95.0284   -1.2687 C.ar    1  UNL1        0.1338
     17 N          63.5045   94.1299   -0.2116 N.ar    1  UNL1       -0.2405
     18 C          62.2156   94.7327    0.2630 C.ar    1  UNL1        0.0699
     19 C          59.0425   88.8756    6.9939 C.3     1  UNL1        0.0420
     20 C          59.9253   88.7627    8.2014 C.3     1  UNL1        0.0585
     21 C          60.8787   87.6426    8.4948 C.3     1  UNL1        0.0175
     22 C          61.5522   87.9376    9.8022 C.3     1  UNL1        0.0199
     23 C          61.0150   89.2402   10.3168 C.3     1  UNL1        0.0856
     24 N          60.0095   89.7501    9.3274 N.3     1  UNL1       -0.2971
     25 H          60.3055   90.6584    8.9698 H       1  UNL1        0.1233
     26 C          61.4134   89.9145   11.5961 C.3     1  UNL1        0.1484
     27 O          60.5440   89.7895   12.8121 O.3     1  UNL1       -0.3786
     28 H          60.9431   90.2813   13.5468 H       1  UNL1        0.2108
     29 C          62.6811   90.7137   11.6595 C.ar    1  UNL1        0.0247
     30 C          63.2797   91.2717   10.4022 C.ar    1  UNL1        0.0012
     31 C          64.5474   92.0709   10.4656 C.ar    1  UNL1        0.0204
     32 C          65.2167   92.3121   11.7862 C.ar    1  UNL1        0.0989
     33 N          64.6182   91.7541   13.0434 N.ar    1  UNL1       -0.2426
     34 C          63.3504   90.9549   12.9800 C.ar    1  UNL1        0.0969
@<TRIPOS>BOND
     1     7     8    2
     2     8     9   am
     3     9     1    1
     4     1     2   ar
     5     2     3   ar
     6     3     4   ar
     7     4    19    1
     8    20    19    1
     9    20    21    1
    10    21    22    1
    11    23    22    1
    12    23    26    1
    13    26    27    1
    14    26    29    1
    15    29    30   ar
    16    30    31   ar
    17    31    32   ar
    18    32    33   ar
    19    33    34   ar
    20    23    24    1
    21     4     5   ar
    22     5     6   ar
    23    11     8    1
    24    11    12    1
    25    12    13    1
    26    13    14    1
    27    14    15   ar
    28    15    16   ar
    29    16    17   ar
    30    17    18   ar
    31     6     1   ar
    32    18    11    1
    33    24    20    1
    34    18    14   ar
    35    34    29   ar
    36     9    10    1
    37    27    28    1
    38    24    25    1
@<TRIPOS>MOLECULE
*****
 34 38 0 0 0
SMALL
GASTEIGER

@<TRIPOS>ATOM
      1 C          62.1407   85.8252   11.0564 C.ar    1  UNL1        0.0503
      2 C          61.6743   86.4382    9.7693 C.ar    1  UNL1        0.0143
      3 C          61.8435   87.9101    9.5349 C.ar    1  UNL1       -0.0029
      4 C          62.4789   88.7690   10.5877 C.ar    1  UNL1       -0.0208
      5 C          62.9453   88.1560   11.8749 C.ar    1  UNL1       -0.0029
      6 C          62.7762   86.6841   12.1092 C.ar    1  UNL1        0.0143
      7 O          64.0322   84.3684   12.8730 O.2     1  UNL1       -0.2744
      8 C          62.9173   83.6249   12.1991 C.2     1  UNL1        0.2313
      9 N          61.9715   84.3533   11.2907 N.am    1  UNL1       -0.2836
     10 H          61.2398   83.8653   10.8484 H       1  UNL1        0.1549
     11 C          62.7482   82.1530   12.4334 C.3     1  UNL1        0.1173
     12 C          62.4594   81.4975   13.7514 C.3     1  UNL1        0.0204
     13 C          62.3709   80.0176   13.5234 C.3     1  UNL1        0.0351
     14 C          62.6050   79.7584   12.0647 C.ar    1  UNL1        0.0227
     15 S          62.6949   78.6836   11.0223 S.2     1  UNL1       -0.0692
     16 C          62.9837   79.3391    9.7043 C.ar    1  UNL1        0.1338
     17 N          63.0722   80.8190    9.9322 N.ar    1  UNL1       -0.2405
     18 C          62.8381   81.0782   11.3910 C.ar    1  UNL1        0.0699
     19 C          62.6481   90.2409   10.3533 C.3     1  UNL1        0.0420
     20 C          63.5659   91.0394   11.2307 C.3     1  UNL1        0.0585
     21 C          63.7320   90.8766   12.7125 C.3     1  UNL1        0.0175
     22 C          64.7476   91.8775   13.1779 C.3     1  UNL1        0.0199
     23 C          65.2091   92.6591   11.9838 C.3     1  UNL1        0.0856
     24 N          64.4788   92.1411   10.7803 N.3     1  UNL1       -0.2971
     25 H          65.1466   91.7804   10.0989 H       1  UNL1        0.1233
     26 C          66.2230   93.7645   11.9916 C.3     1  UNL1        0.1484
     27 O          67.0317   94.0317   13.2264 O.3     1  UNL1       -0.3786
     28 H          67.6351   94.7735   13.0634 H       1  UNL1        0.2108
     29 C          66.4282   94.6028   10.7648 C.ar    1  UNL1        0.0247
     30 C          67.3262   94.1168    9.6659 C.ar    1  UNL1        0.0012
     31 C          67.5314   94.9551    8.4390 C.ar    1  UNL1        0.0204
     32 C          66.8386   96.2793    8.3110 C.ar    1  UNL1        0.0989
     33 N          65.9405   96.7653    9.4099 N.ar    1  UNL1       -0.2426
     34 C          65.7353   95.9270   10.6367 C.ar    1  UNL1        0.0969
@<TRIPOS>BOND
     1     7     8    2
     2     8     9   am
     3     9     1    1
     4     1     2   ar
     5     2     3   ar
     6     3     4   ar
     7     4    19    1
     8    20    19    1
     9    20    21    1
    10    21    22    1
    11    23    22    1
    12    23    26    1
    13    26    27    1
    14    26    29    1
    15    29    30   ar
    16    30    31   ar
    17    31    32   ar
    18    32    33   ar
    19    33    34   ar
    20    23    24    1
    21     4     5   ar
    22     5     6   ar
    23    11     8    1
    24    11    12    1
    25    12    13    1
    26    13    14    1
    27    14    15   ar
    28    15    16   ar
    29    16    17   ar
    30    17    18   ar
    31     6     1   ar
    32    18    11    1
    33    24    20    1
    34    18    14   ar
    35    34    29   ar
    36     9    10    1
    37    27    28    1
    38    24    25    1
@<TRIPOS>MOLECULE
*****
 34 38 0 0 0
SMALL
GASTEIGER

@<TRIPOS>ATOM
      1 C          63.6500   85.7160   13.2138 C.ar    1  UNL1        0.0503
      2 C          64.3493   86.0869   14.4879 C.ar    1  UNL1        0.0143
      3 C          64.4989   87.5301   14.8686 C.ar    1  UNL1       -0.0029
      4 C          63.9491   88.6023   13.9753 C.ar    1  UNL1       -0.0208
      5 C          63.2497   88.2314   12.7012 C.ar    1  UNL1       -0.0029
      6 C          63.1001   86.7882   12.3204 C.ar    1  UNL1        0.0143
      7 O          61.9715   83.8866   14.8980 O.2     1  UNL1       -0.2744
      8 C          62.6611   83.3581   13.6752 C.2     1  UNL1        0.2313
      9 N          63.5004   84.2728   12.8331 N.am    1  UNL1       -0.2836
     10 H          63.9530   83.9260   12.0306 H       1  UNL1        0.1549
     11 C          62.5115   81.9150   13.2945 C.3     1  UNL1        0.1173
     12 C          62.0327   80.8117   14.1910 C.3     1  UNL1        0.0204
     13 C          62.0397   79.5366   13.4010 C.3     1  UNL1        0.0351
     14 C          62.5229   79.8518   12.0163 C.ar    1  UNL1        0.0227
     15 S          62.8259   79.2585   10.6724 S.2     1  UNL1       -0.0692
     16 C          63.3047   80.3617    9.7760 C.ar    1  UNL1        0.1338
     17 N          63.2977   81.6369   10.5660 N.ar    1  UNL1       -0.2405
     18 C          62.8145   81.3217   11.9506 C.ar    1  UNL1        0.0699
     19 C          64.0987   90.0454   14.3560 C.3     1  UNL1        0.0420
     20 C          64.4657   91.0615   13.3154 C.3     1  UNL1        0.0585
     21 C          64.0336   91.0480   11.8791 C.3     1  UNL1        0.0175
     22 C          64.6300   92.2476   11.2043 C.3     1  UNL1        0.0199
     23 C          65.4307   93.0025   12.2237 C.3     1  UNL1        0.0856
     24 N          65.3291   92.2694   13.5284 N.3     1  UNL1       -0.2971
     25 H          64.9094   92.8748   14.2338 H       1  UNL1        0.1233
     26 C          66.1982   94.2682   11.9809 C.3     1  UNL1        0.1484
     27 O          66.6640   95.0970   13.1411 O.3     1  UNL1       -0.3786
     28 H          67.1408   95.8750   12.8119 H       1  UNL1        0.2108
     29 C          66.4999   94.7051   10.5781 C.ar    1  UNL1        0.0247
     30 C          65.9536   96.0038   10.0631 C.ar    1  UNL1        0.0012
     31 C          66.2553   96.4406    8.6602 C.ar    1  UNL1        0.0204
     32 C          67.1032   95.5789    7.7722 C.ar    1  UNL1        0.0989
     33 N          67.6494   94.2801    8.2872 N.ar    1  UNL1       -0.2426
     34 C          67.3477   93.8433    9.6901 C.ar    1  UNL1        0.0969
@<TRIPOS>BOND
     1     7     8    2
     2     8     9   am
     3     9     1    1
     4     1     2   ar
     5     2     3   ar
     6     3     4   ar
     7     4    19    1
     8    20    19    1
     9    20    21    1
    10    21    22    1
    11    23    22    1
    12    23    26    1
    13    26    27    1
    14    26    29    1
    15    29    30   ar
    16    30    31   ar
    17    31    32   ar
    18    32    33   ar
    19    33    34   ar
    20    23    24    1
    21     4     5   ar
    22     5     6   ar
    23    11     8    1
    24    11    12    1
    25    12    13    1
    26    13    14    1
    27    14    15   ar
    28    15    16   ar
    29    16    17   ar
    30    17    18   ar
    31     6     1   ar
    32    18    11    1
    33    24    20    1
    34    18    14   ar
    35    34    29   ar
    36     9    10    1
    37    27    28    1
    38    24    25    1
