@<TRIPOS>MOLECULE
*****
 23 26 0 0 0
SMALL
GASTEIGER

@<TRIPOS>ATOM
      1 O          64.2344   91.8354   13.3318 O.2     1  UNL1       -0.2422
      2 C          63.8434   90.4165   13.0420 C.2     1  UNL1        0.3644
      3 C          62.9894   90.1026   11.8496 C.3     1  UNL1        0.2333
      4 C          62.5984   88.6837   11.5598 C.2     1  UNL1        0.3159
      5 N          63.0614   87.5788   12.4624 N.2     1  UNL1       -0.0039
      6 C          63.9155   87.8928   13.6549 C.2     1  UNL1        0.3581
      7 N          64.3065   89.3116   13.9447 N.am    1  UNL1        0.0289
      8 N          61.7442   88.3698   10.3673 N.pl3   1  UNL1       -0.1888
      9 C          61.7139   86.9765    9.8124 C.3     1  UNL1        0.2343
     10 C          60.8598   86.6625    8.6200 C.3     1  UNL1        0.1929
     11 O          60.0361   87.7418    7.9824 O.3     1  UNL1       -0.3449
     12 C          60.0665   89.1351    8.5372 C.3     1  UNL1        0.1929
     13 C          60.9206   89.4491    9.7296 C.3     1  UNL1        0.2343
     14 C          64.3786   86.7879   14.5575 C.3     1  UNL1        0.2065
     15 C          63.9415   85.3763   14.3002 C.ar    1  UNL1        0.2182
     16 N          62.7212   84.7138   14.8678 N.ar    1  UNL1       -0.2116
     17 C          62.6734   83.3074   14.3485 C.ar    1  UNL1        0.1185
     18 C          61.6995   82.1883   14.5699 C.ar    1  UNL1        0.0223
     19 C          61.9163   80.8624   13.9028 C.ar    1  UNL1        0.0017
     20 C          63.1071   80.6556   13.0144 C.ar    1  UNL1        0.0032
     21 C          64.0810   81.7747   12.7930 C.ar    1  UNL1        0.0391
     22 C          63.8642   83.1006   13.4600 C.ar    1  UNL1        0.1644
     23 O          64.6478   84.3793   13.4302 O.2     1  UNL1       -0.4378
@<TRIPOS>BOND
     1     1     2    2
     2     2     3    1
     3     3     4    1
     4     4     8    1
     5     8     9    1
     6     9    10    1
     7    10    11    1
     8    11    12    1
     9    12    13    1
    10     4     5    2
    11     5     6    1
    12     6    14    1
    13    14    15    1
    14    15    16   ar
    15    16    17   ar
    16    17    18   ar
    17    18    19   ar
    18    19    20   ar
    19    20    21   ar
    20    21    22   ar
    21    22    23   ar
    22     6     7    2
    23     7     2    1
    24    13     8    1
    25    23    15   ar
    26    22    17   ar
@<TRIPOS>MOLECULE
*****
 23 26 0 0 0
SMALL
GASTEIGER

@<TRIPOS>ATOM
      1 O          64.2641   91.8894   13.3655 O.2     1  UNL1       -0.2422
      2 C          63.8706   90.4704   13.0797 C.2     1  UNL1        0.3644
      3 C          63.0234   90.1535   11.8832 C.3     1  UNL1        0.2333
      4 C          62.6299   88.7345   11.5974 C.2     1  UNL1        0.3159
      5 N          63.0836   87.6324   12.5082 N.2     1  UNL1       -0.0039
      6 C          63.9309   87.9493   13.7048 C.2     1  UNL1        0.3581
      7 N          64.3244   89.3683   13.9906 N.am    1  UNL1        0.0289
      8 N          61.7827   88.4176   10.4008 N.pl3   1  UNL1       -0.1888
      9 C          60.9444   89.4899    9.7702 C.3     1  UNL1        0.2343
     10 C          60.0972   89.1731    8.5737 C.3     1  UNL1        0.1929
     11 O          60.0883   87.7840    8.0076 O.3     1  UNL1       -0.3449
     12 C          60.9266   86.7118    8.6382 C.3     1  UNL1        0.1929
     13 C          61.7738   87.0286    9.8347 C.3     1  UNL1        0.2343
     14 C          64.3846   86.8473   14.6156 C.3     1  UNL1        0.2065
     15 C          63.9534   85.4342   14.3558 C.ar    1  UNL1        0.2182
     16 N          64.6693   84.4386   13.4920 N.ar    1  UNL1       -0.2116
     17 C          63.8890   83.1578   13.5165 C.ar    1  UNL1        0.1185
     18 C          64.1147   81.8321   12.8521 C.ar    1  UNL1        0.0223
     19 C          63.1422   80.7105   13.0666 C.ar    1  UNL1        0.0017
     20 C          61.9439   80.9145   13.9455 C.ar    1  UNL1        0.0032
     21 C          61.7182   82.2402   14.6100 C.ar    1  UNL1        0.0391
     22 C          62.6907   83.3618   14.3955 C.ar    1  UNL1        0.1644
     23 O          62.7306   84.7688   14.9142 O.2     1  UNL1       -0.4378
@<TRIPOS>BOND
     1     1     2    2
     2     2     3    1
     3     3     4    1
     4     4     8    1
     5     8     9    1
     6     9    10    1
     7    10    11    1
     8    11    12    1
     9    12    13    1
    10     4     5    2
    11     5     6    1
    12     6    14    1
    13    14    15    1
    14    15    16   ar
    15    16    17   ar
    16    17    18   ar
    17    18    19   ar
    18    19    20   ar
    19    20    21   ar
    20    21    22   ar
    21    22    23   ar
    22     6     7    2
    23     7     2    1
    24    13     8    1
    25    23    15   ar
    26    22    17   ar
@<TRIPOS>MOLECULE
*****
 23 26 0 0 0
SMALL
GASTEIGER

@<TRIPOS>ATOM
      1 O          67.0975   93.2919   16.4406 O.2     1  UNL1       -0.2422
      2 C          66.4451   92.7625   15.1980 C.2     1  UNL1        0.3644
      3 C          66.8986   93.2410   13.8506 C.3     1  UNL1        0.2333
      4 C          66.2462   92.7116   12.6080 C.2     1  UNL1        0.3159
      5 N          65.1403   91.7037   12.7127 N.2     1  UNL1       -0.0039
      6 C          64.6867   91.2252   14.0601 C.2     1  UNL1        0.3581
      7 N          65.3391   91.7546   15.3027 N.am    1  UNL1        0.0289
      8 N          66.6998   93.1901   11.2606 N.pl3   1  UNL1       -0.1888
      9 C          66.2077   94.5024   10.7261 C.3     1  UNL1        0.2343
     10 C          66.6613   94.9810    9.3788 C.3     1  UNL1        0.1929
     11 O          67.6069   94.1472    8.5661 O.3     1  UNL1       -0.3449
     12 C          68.0990   92.8349    9.1006 C.3     1  UNL1        0.1929
     13 C          67.6455   92.3564   10.4479 C.3     1  UNL1        0.2343
     14 C          63.5807   90.2173   14.1648 C.3     1  UNL1        0.2065
     15 C          62.9094   89.7088   12.9235 C.ar    1  UNL1        0.2182
     16 N          63.0916   88.3494   12.3164 N.ar    1  UNL1       -0.2116
     17 C          62.2328   88.2708   11.0891 C.ar    1  UNL1        0.1185
     18 C          62.0080   87.1750   10.0898 C.ar    1  UNL1        0.0223
     19 C          61.0701   87.3901    8.9392 C.ar    1  UNL1        0.0017
     20 C          60.3571   88.7011    8.7878 C.ar    1  UNL1        0.0032
     21 C          60.5819   89.7969    9.7870 C.ar    1  UNL1        0.0391
     22 C          61.5198   89.5818   10.9376 C.ar    1  UNL1        0.1644
     23 O          61.9379   90.4705   12.0714 O.2     1  UNL1       -0.4378
@<TRIPOS>BOND
     1     1     2    2
     2     2     3    1
     3     3     4    1
     4     4     8    1
     5     8     9    1
     6     9    10    1
     7    10    11    1
     8    11    12    1
     9    12    13    1
    10     4     5    2
    11     5     6    1
    12     6    14    1
    13    14    15    1
    14    15    16   ar
    15    16    17   ar
    16    17    18   ar
    17    18    19   ar
    18    19    20   ar
    19    20    21   ar
    20    21    22   ar
    21    22    23   ar
    22     6     7    2
    23     7     2    1
    24    13     8    1
    25    23    15   ar
    26    22    17   ar
@<TRIPOS>MOLECULE
*****
 23 26 0 0 0
SMALL
GASTEIGER

@<TRIPOS>ATOM
      1 O          62.4414   85.2783    7.6651 O.2     1  UNL1       -0.2422
      2 C          62.4230   85.7367    9.0933 C.2     1  UNL1        0.3644
      3 C          62.7004   84.7605   10.1979 C.3     1  UNL1        0.2333
      4 C          62.6820   85.2189   11.6260 C.2     1  UNL1        0.3159
      5 N          62.3862   86.6533   11.9496 N.2     1  UNL1       -0.0039
      6 C          62.1088   87.6296   10.8449 C.2     1  UNL1        0.3581
      7 N          62.1272   87.1712    9.4168 N.am    1  UNL1        0.0289
      8 N          62.9594   84.2426   12.7306 N.pl3   1  UNL1       -0.1888
      9 C          62.6650   82.7849   12.5347 C.3     1  UNL1        0.2343
     10 C          62.9423   81.8087   13.6392 C.3     1  UNL1        0.1929
     11 O          63.5141   82.2902   14.9397 O.3     1  UNL1       -0.3449
     12 C          63.8085   83.7479   15.1356 C.3     1  UNL1        0.1929
     13 C          63.5311   84.7241   14.0311 C.3     1  UNL1        0.2343
     14 C          61.8130   89.0640   11.1685 C.3     1  UNL1        0.2065
     15 C          62.8162   89.8849   11.9232 C.ar    1  UNL1        0.2182
     16 N          63.1820   89.7201   13.3686 N.ar    1  UNL1       -0.2116
     17 C          64.2216   90.7481   13.7038 C.ar    1  UNL1        0.1185
     18 C          64.9521   91.0589   14.9765 C.ar    1  UNL1        0.0223
     19 C          65.9592   92.1699   15.0110 C.ar    1  UNL1        0.0017
     20 C          66.2360   92.9701   13.7729 C.ar    1  UNL1        0.0032
     21 C          65.5056   92.6593   12.5001 C.ar    1  UNL1        0.0391
     22 C          64.4984   91.5483   12.4656 C.ar    1  UNL1        0.1644
     23 O          63.6298   91.0148   11.3652 O.2     1  UNL1       -0.4378
@<TRIPOS>BOND
     1     1     2    2
     2     2     3    1
     3     3     4    1
     4     4     8    1
     5     8     9    1
     6     9    10    1
     7    10    11    1
     8    11    12    1
     9    12    13    1
    10     4     5    2
    11     5     6    1
    12     6    14    1
    13    14    15    1
    14    15    16   ar
    15    16    17   ar
    16    17    18   ar
    17    18    19   ar
    18    19    20   ar
    19    20    21   ar
    20    21    22   ar
    21    22    23   ar
    22     6     7    2
    23     7     2    1
    24    13     8    1
    25    23    15   ar
    26    22    17   ar
@<TRIPOS>MOLECULE
*****
 23 26 0 0 0
SMALL
GASTEIGER

@<TRIPOS>ATOM
      1 O          61.9719   88.8342   10.8308 O.2     1  UNL1       -0.2422
      2 C          62.9125   88.9041   11.9972 C.2     1  UNL1        0.3644
      3 C          63.6315   90.1839   12.3053 C.3     1  UNL1        0.2333
      4 C          64.5721   90.2537   13.4717 C.2     1  UNL1        0.3159
      5 N          64.7936   89.0437   14.3299 N.2     1  UNL1       -0.0039
      6 C          64.0746   87.7638   14.0219 C.2     1  UNL1        0.3581
      7 N          63.1340   87.6939   12.8555 N.am    1  UNL1        0.0289
      8 N          65.2911   91.5336   13.7797 N.pl3   1  UNL1       -0.1888
      9 C          65.5564   92.5265   12.6871 C.3     1  UNL1        0.2343
     10 C          66.2754   93.8064   12.9952 C.3     1  UNL1        0.1929
     11 O          66.7291   94.0934   14.3958 O.3     1  UNL1       -0.3449
     12 C          66.4638   93.1005   15.4884 C.3     1  UNL1        0.1929
     13 C          65.7448   91.8206   15.1804 C.3     1  UNL1        0.2343
     14 C          64.2961   86.5537   14.8801 C.3     1  UNL1        0.2065
     15 C          63.8488   85.2038   14.4032 C.ar    1  UNL1        0.2182
     16 N          62.8312   84.3259   15.0694 N.ar    1  UNL1       -0.2116
     17 C          62.6940   83.0742   14.2543 C.ar    1  UNL1        0.1185
     18 C          61.8402   81.8530   14.4262 C.ar    1  UNL1        0.0223
     19 C          61.9192   80.7361   13.4281 C.ar    1  UNL1        0.0017
     20 C          62.8519   80.8404   12.2580 C.ar    1  UNL1        0.0032
     21 C          63.7057   82.0616   12.0860 C.ar    1  UNL1        0.0391
     22 C          63.6267   83.1785   13.0841 C.ar    1  UNL1        0.1644
     23 O          64.3404   84.4947   13.1762 O.2     1  UNL1       -0.4378
@<TRIPOS>BOND
     1     1     2    2
     2     2     3    1
     3     3     4    1
     4     4     8    1
     5     8     9    1
     6     9    10    1
     7    10    11    1
     8    11    12    1
     9    12    13    1
    10     4     5    2
    11     5     6    1
    12     6    14    1
    13    14    15    1
    14    15    16   ar
    15    16    17   ar
    16    17    18   ar
    17    18    19   ar
    18    19    20   ar
    19    20    21   ar
    20    21    22   ar
    21    22    23   ar
    22     6     7    2
    23     7     2    1
    24    13     8    1
    25    23    15   ar
    26    22    17   ar
@<TRIPOS>MOLECULE
*****
 23 26 0 0 0
SMALL
GASTEIGER

@<TRIPOS>ATOM
      1 O          59.3818   86.6152    7.5347 O.2     1  UNL1       -0.2422
      2 C          60.2016   86.8008    8.7770 C.2     1  UNL1        0.3644
      3 C          61.0818   85.6898    9.2677 C.3     1  UNL1        0.2333
      4 C          61.9016   85.8754   10.5100 C.2     1  UNL1        0.3159
      5 N          61.8413   87.1720   11.2617 N.2     1  UNL1       -0.0039
      6 C          60.9611   88.2832   10.7710 C.2     1  UNL1        0.3581
      7 N          60.1413   88.0976    9.5286 N.am    1  UNL1        0.0289
      8 N          62.7818   84.7642   11.0007 N.pl3   1  UNL1       -0.1888
      9 C          63.5292   83.9105   10.0196 C.3     1  UNL1        0.2343
     10 C          64.4094   82.7994   10.5102 C.3     1  UNL1        0.1929
     11 O          64.5422   82.5420   11.9820 O.3     1  UNL1       -0.3449
     12 C          63.7948   83.3957   12.9631 C.3     1  UNL1        0.1929
     13 C          62.9146   84.5068   12.4725 C.3     1  UNL1        0.2343
     14 C          60.9008   89.5798   11.5226 C.3     1  UNL1        0.2065
     15 C          62.1450   90.1488   12.1376 C.ar    1  UNL1        0.2182
     16 N          63.0937   91.1079   11.4817 N.ar    1  UNL1       -0.2116
     17 C          64.1940   91.4104   12.4553 C.ar    1  UNL1        0.1185
     18 C          65.4058   92.2892   12.3591 C.ar    1  UNL1        0.0223
     19 C          66.3489   92.3958   13.5205 C.ar    1  UNL1        0.0017
     20 C          66.0803   91.6237   14.7782 C.ar    1  UNL1        0.0032
     21 C          64.8685   90.7449   14.8744 C.ar    1  UNL1        0.0391
     22 C          63.9254   90.6383   13.7129 C.ar    1  UNL1        0.1644
     23 O          62.6591   89.8586   13.5166 O.2     1  UNL1       -0.4378
@<TRIPOS>BOND
     1     1     2    2
     2     2     3    1
     3     3     4    1
     4     4     8    1
     5     8     9    1
     6     9    10    1
     7    10    11    1
     8    11    12    1
     9    12    13    1
    10     4     5    2
    11     5     6    1
    12     6    14    1
    13    14    15    1
    14    15    16   ar
    15    16    17   ar
    16    17    18   ar
    17    18    19   ar
    18    19    20   ar
    19    20    21   ar
    20    21    22   ar
    21    22    23   ar
    22     6     7    2
    23     7     2    1
    24    13     8    1
    25    23    15   ar
    26    22    17   ar
@<TRIPOS>MOLECULE
*****
 23 26 0 0 0
SMALL
GASTEIGER

@<TRIPOS>ATOM
      1 O          63.7634   85.9096   13.9239 O.2     1  UNL1       -0.2422
      2 C          63.2618   86.8856   12.9012 C.2     1  UNL1        0.3644
      3 C          62.5077   86.3938   11.7016 C.3     1  UNL1        0.2333
      4 C          62.0061   87.3699   10.6790 C.2     1  UNL1        0.3159
      5 N          62.2587   88.8378   10.8560 N.2     1  UNL1       -0.0039
      6 C          63.0129   89.3297   12.0557 C.2     1  UNL1        0.3581
      7 N          63.5145   88.3536   13.0784 N.am    1  UNL1        0.0289
      8 N          61.2519   86.8779    9.4792 N.pl3   1  UNL1       -0.1888
      9 C          59.8406   87.3283    9.2441 C.3     1  UNL1        0.2343
     10 C          59.0864   86.8364    8.0444 C.3     1  UNL1        0.1929
     11 O          59.7435   85.8942    7.0799 O.3     1  UNL1       -0.3449
     12 C          61.1548   85.4438    7.3151 C.3     1  UNL1        0.1929
     13 C          61.9090   85.9357    8.5147 C.3     1  UNL1        0.2343
     14 C          63.2655   90.7976   12.2328 C.3     1  UNL1        0.2065
     15 C          64.4345   91.2644   13.0486 C.ar    1  UNL1        0.2182
     16 N          64.3929   91.6882   14.4869 N.ar    1  UNL1       -0.2116
     17 C          65.7830   92.0752   14.8966 C.ar    1  UNL1        0.1185
     18 C          66.3449   92.5718   16.1956 C.ar    1  UNL1        0.0223
     19 C          67.8077   92.8837   16.3096 C.ar    1  UNL1        0.0017
     20 C          68.7085   92.6990   15.1245 C.ar    1  UNL1        0.0032
     21 C          68.1466   92.2024   13.8254 C.ar    1  UNL1        0.0391
     22 C          66.6838   91.8905   13.7115 C.ar    1  UNL1        0.1644
     23 O          65.8504   91.3894   12.5694 O.2     1  UNL1       -0.4378
@<TRIPOS>BOND
     1     1     2    2
     2     2     3    1
     3     3     4    1
     4     4     8    1
     5     8     9    1
     6     9    10    1
     7    10    11    1
     8    11    12    1
     9    12    13    1
    10     4     5    2
    11     5     6    1
    12     6    14    1
    13    14    15    1
    14    15    16   ar
    15    16    17   ar
    16    17    18   ar
    17    18    19   ar
    18    19    20   ar
    19    20    21   ar
    20    21    22   ar
    21    22    23   ar
    22     6     7    2
    23     7     2    1
    24    13     8    1
    25    23    15   ar
    26    22    17   ar
@<TRIPOS>MOLECULE
*****
 23 26 0 0 0
SMALL
GASTEIGER

@<TRIPOS>ATOM
      1 O          61.4293   85.7398    7.7169 O.2     1  UNL1       -0.2422
      2 C          61.7085   86.1951    9.1186 C.2     1  UNL1        0.3644
      3 C          62.1989   85.2144   10.1420 C.3     1  UNL1        0.2333
      4 C          62.4781   85.6698   11.5437 C.2     1  UNL1        0.3159
      5 N          62.2668   87.1058   11.9219 N.2     1  UNL1       -0.0039
      6 C          61.7763   88.0866   10.8984 C.2     1  UNL1        0.3581
      7 N          61.4971   87.6313    9.4967 N.am    1  UNL1        0.0289
      8 N          62.9687   84.6890   12.5672 N.pl3   1  UNL1       -0.1888
      9 C          63.6203   85.1809   13.8255 C.3     1  UNL1        0.2343
     10 C          64.1108   84.2002   14.8490 C.3     1  UNL1        0.1929
     11 O          63.9497   82.7275   14.6142 O.3     1  UNL1       -0.3449
     12 C          63.2980   82.2356   13.3559 C.3     1  UNL1        0.1929
     13 C          62.8075   83.2163   12.3324 C.3     1  UNL1        0.2343
     14 C          61.5650   89.5226   11.2766 C.3     1  UNL1        0.2065
     15 C          62.7453   90.4142   11.5254 C.ar    1  UNL1        0.2182
     16 N          63.3958   91.3171   10.5196 N.ar    1  UNL1       -0.2116
     17 C          64.5349   92.0204   11.1962 C.ar    1  UNL1        0.1185
     18 C          65.5303   93.0266   10.6996 C.ar    1  UNL1        0.0223
     19 C          66.5793   93.5646   11.6270 C.ar    1  UNL1        0.0017
     20 C          66.6329   93.0963   13.0510 C.ar    1  UNL1        0.0032
     21 C          65.6376   92.0900   13.5476 C.ar    1  UNL1        0.0391
     22 C          64.5886   91.5521   12.6202 C.ar    1  UNL1        0.1644
     23 O          63.4825   90.5594   12.8236 O.2     1  UNL1       -0.4378
@<TRIPOS>BOND
     1     1     2    2
     2     2     3    1
     3     3     4    1
     4     4     8    1
     5     8     9    1
     6     9    10    1
     7    10    11    1
     8    11    12    1
     9    12    13    1
    10     4     5    2
    11     5     6    1
    12     6    14    1
    13    14    15    1
    14    15    16   ar
    15    16    17   ar
    16    17    18   ar
    17    18    19   ar
    18    19    20   ar
    19    20    21   ar
    20    21    22   ar
    21    22    23   ar
    22     6     7    2
    23     7     2    1
    24    13     8    1
    25    23    15   ar
    26    22    17   ar
@<TRIPOS>MOLECULE
*****
 23 26 0 0 0
SMALL
GASTEIGER

@<TRIPOS>ATOM
      1 O          62.6845   88.9234   15.8981 O.2     1  UNL1       -0.2422
      2 C          63.3429   89.7910   14.8667 C.2     1  UNL1        0.3644
      3 C          64.6609   90.4420   15.1649 C.3     1  UNL1        0.2333
      4 C          65.3193   91.3095   14.1335 C.2     1  UNL1        0.3159
      5 N          64.6598   91.5260   12.8038 N.2     1  UNL1       -0.0039
      6 C          63.3417   90.8749   12.5055 C.2     1  UNL1        0.3581
      7 N          62.6833   90.0074   13.5369 N.am    1  UNL1        0.0289
      8 N          66.6374   91.9606   14.4318 N.pl3   1  UNL1       -0.1888
      9 C          67.8215   91.6953   13.5500 C.3     1  UNL1        0.2343
     10 C          69.1395   92.3463   13.8483 C.3     1  UNL1        0.1929
     11 O          69.2734   93.2627   15.0282 O.3     1  UNL1       -0.3449
     12 C          68.0893   93.5280   15.9100 C.3     1  UNL1        0.1929
     13 C          66.7713   92.8769   15.6117 C.3     1  UNL1        0.2343
     14 C          62.6822   91.0914   11.1758 C.3     1  UNL1        0.2065
     15 C          62.0889   89.9298   10.4350 C.ar    1  UNL1        0.2182
     16 N          60.7910   89.9338    9.6830 N.ar    1  UNL1       -0.2116
     17 C          60.5893   88.5668    9.0993 C.ar    1  UNL1        0.1185
     18 C          59.4889   87.9854    8.2621 C.ar    1  UNL1        0.0223
     19 C          59.5617   86.5551    7.8161 C.ar    1  UNL1        0.0017
     20 C          60.7349   85.7062    8.2074 C.ar    1  UNL1        0.0032
     21 C          61.8353   86.2877    9.0446 C.ar    1  UNL1        0.0391
     22 C          61.7625   87.7180    9.4905 C.ar    1  UNL1        0.1644
     23 O          62.6893   88.5604   10.3160 O.2     1  UNL1       -0.4378
@<TRIPOS>BOND
     1     1     2    2
     2     2     3    1
     3     3     4    1
     4     4     8    1
     5     8     9    1
     6     9    10    1
     7    10    11    1
     8    11    12    1
     9    12    13    1
    10     4     5    2
    11     5     6    1
    12     6    14    1
    13    14    15    1
    14    15    16   ar
    15    16    17   ar
    16    17    18   ar
    17    18    19   ar
    18    19    20   ar
    19    20    21   ar
    20    21    22   ar
    21    22    23   ar
    22     6     7    2
    23     7     2    1
    24    13     8    1
    25    23    15   ar
    26    22    17   ar
