@<TRIPOS>MOLECULE
*****
 44 49 0 0 0
SMALL
GASTEIGER

@<TRIPOS>ATOM
      1 C          58.6927   86.7311    8.5245 C.3     1  UNL1        0.0312
      2 C          59.5591   87.9322    8.2867 C.2     1  UNL1        0.0136
      3 C          59.3580   88.7709    7.0595 C.2     1  UNL1        0.0107
      4 C          60.2244   89.9720    6.8217 C.2     1  UNL1        0.0509
      5 C          61.2920   90.3345    7.8111 C.2     1  UNL1        0.0613
      6 C          61.4931   89.4958    9.0384 C.2     1  UNL1        0.2246
      7 N          62.4575   89.6055   10.1820 N.2     1  UNL1       -0.0378
      8 C          62.1870   88.4721   11.1266 C.2     1  UNL1        0.3605
      9 N          61.0555   87.6620   10.5668 N.2     1  UNL1       -0.0547
     10 C          60.6266   88.2947    9.2761 C.3     1  UNL1        0.2976
     11 C          62.9195   88.1971   12.4064 C.3     1  UNL1        0.2246
     12 C          63.4501   89.3355   13.2264 C.2     1  UNL1        0.0436
     13 C          64.1826   89.0604   14.5062 C.2     1  UNL1        0.0288
     14 C          64.3844   87.6470   14.9660 C.2     1  UNL1        0.0896
     15 N          63.8538   86.5086   14.1460 N.am    1  UNL1       -0.1770
     16 C          63.1213   86.7837   12.8662 C.2     1  UNL1        0.2627
     17 O          62.5907   85.6452   12.0462 O.2     1  UNL1       -0.2719
     18 N          63.2484   90.7490   12.7667 N.pl3   1  UNL1       -0.3329
     19 H          62.4823   91.2702   13.0994 H       1  UNL1        0.1466
     20 C          64.2137   91.3684   11.8000 C.3     1  UNL1        0.1211
     21 C          65.2233   92.3666   12.2841 C.3     1  UNL1        0.1522
     22 O          65.3743   92.6284   13.7533 O.3     1  UNL1       -0.3783
     23 H          64.7492   92.0742   14.2464 H       1  UNL1        0.2109
     24 C          66.0818   93.1030   11.2989 C.ar    1  UNL1        0.0067
     25 C          65.9665   94.5930   11.1702 C.ar    1  UNL1       -0.0018
     26 C          66.8251   95.3295   10.1851 C.ar    1  UNL1        0.0006
     27 C          67.7990   94.5759    9.3285 C.ar    1  UNL1        0.0114
     28 C          67.9143   93.0859    9.4572 C.ar    1  UNL1        0.0574
     29 CL         68.8882   92.3323    8.6007 Cl      1  UNL1       -0.0823
     30 C          67.0557   92.3495   10.4424 C.ar    1  UNL1        0.0095
     31 N          60.0232   90.8108    5.5944 N.pl3   1  UNL1       -0.3073
     32 C          61.2012   91.2027    4.7525 C.3     1  UNL1        0.0922
     33 C          61.0001   92.0414    3.5253 C.3     1  UNL1        0.0374
     34 C          59.6210   92.4882    3.1400 C.3     1  UNL1        0.0611
     35 C          58.4430   92.0963    3.9818 C.3     1  UNL1        0.0374
     36 C          58.6441   91.2576    5.2091 C.3     1  UNL1        0.0922
     37 N          59.4198   93.3269    1.9128 N.3     1  UNL1       -0.2698
     38 C          58.5596   92.8224    0.7922 C.3     1  UNL1        0.1020
     39 C          58.3584   93.6610   -0.4350 C.3     1  UNL1        0.1312
     40 C          57.4982   93.1564   -1.5555 C.3     1  UNL1        0.0335
     41 O          59.0173   95.0043   -0.5418 O.3     1  UNL1       -0.3559
     42 C          59.8775   95.5088    0.5787 C.3     1  UNL1        0.1312
     43 C          60.5364   96.8521    0.4720 C.3     1  UNL1        0.0335
     44 C          60.0787   94.6702    1.8060 C.3     1  UNL1        0.1020
@<TRIPOS>BOND
     1     1     2    1
     2     2     3    2
     3     3     4    1
     4     4    31    1
     5    31    32    1
     6    32    33    1
     7    33    34    1
     8    34    37    1
     9    37    38    1
    10    38    39    1
    11    39    40    1
    12    39    41    1
    13    41    42    1
    14    42    43    1
    15    42    44    1
    16    34    35    1
    17    35    36    1
    18     4     5    2
    19     5     6    1
    20     6     7    2
    21     7     8    1
    22     8    11    1
    23    11    12    1
    24    12    18    1
    25    18    20    1
    26    20    21    1
    27    21    22    1
    28    21    24    1
    29    24    25   ar
    30    25    26   ar
    31    26    27   ar
    32    27    28   ar
    33    28    29    1
    34    28    30   ar
    35    12    13    2
    36    13    14    1
    37    14    15    2
    38    15    16    1
    39    16    17    2
    40     8     9    2
    41     9    10    1
    42    10     2    1
    43    36    31    1
    44    10     6    1
    45    44    37    1
    46    16    11    1
    47    30    24   ar
    48    18    19    1
    49    22    23    1
@<TRIPOS>MOLECULE
*****
 44 49 0 0 0
SMALL
GASTEIGER

@<TRIPOS>ATOM
      1 C          56.3187   91.2102    5.0060 C.3     1  UNL1        0.0312
      2 C          57.8047   91.0751    5.1589 C.2     1  UNL1        0.0136
      3 C          58.3722   90.2790    6.2966 C.2     1  UNL1        0.0107
      4 C          59.8582   90.1439    6.4495 C.2     1  UNL1        0.0509
      5 C          60.7768   90.8047    5.4649 C.2     1  UNL1        0.0613
      6 C          60.2093   91.6008    4.3272 C.2     1  UNL1        0.2246
      7 N          60.8613   92.3589    3.2092 N.2     1  UNL1       -0.0378
      8 C          59.7781   92.9627    2.3652 C.2     1  UNL1        0.3605
      9 N          58.4568   92.5777    2.9616 N.2     1  UNL1       -0.0547
     10 C          58.7232   91.7359    4.1743 C.3     1  UNL1        0.2976
     11 C          59.9808   93.8038    1.1399 C.3     1  UNL1        0.2246
     12 C          59.3449   93.4034   -0.1583 C.2     1  UNL1        0.0436
     13 C          59.5476   94.2446   -1.3836 C.2     1  UNL1        0.0288
     14 C          60.3861   95.4862   -1.3108 C.2     1  UNL1        0.0896
     15 N          61.0220   95.8867   -0.0126 N.am    1  UNL1       -0.1770
     16 C          60.8193   95.0454    1.2127 C.2     1  UNL1        0.2627
     17 O          61.4552   95.4459    2.5109 O.2     1  UNL1       -0.2719
     18 N          58.5064   92.1618   -0.2313 N.pl3   1  UNL1       -0.3329
     19 H          58.8514   91.3130    0.1289 H       1  UNL1        0.1466
     20 C          57.1423   92.2135   -0.8529 C.3     1  UNL1        0.1211
     21 C          56.9981   92.4577   -2.3259 C.3     1  UNL1        0.1522
     22 O          57.7479   91.6036   -3.3047 O.3     1  UNL1       -0.3783
     23 H          58.2750   90.9468   -2.8233 H       1  UNL1        0.2109
     24 C          56.1041   93.5562   -2.8200 C.ar    1  UNL1        0.0067
     25 C          56.1274   93.9482   -4.2676 C.ar    1  UNL1       -0.0018
     26 C          55.2334   95.0467   -4.7617 C.ar    1  UNL1        0.0006
     27 C          54.3160   95.7532   -3.8081 C.ar    1  UNL1        0.0114
     28 C          54.2927   95.3611   -2.3605 C.ar    1  UNL1        0.0574
     29 CL         53.3754   96.0676   -1.4069 Cl      1  UNL1       -0.0823
     30 C          55.1867   94.2627   -1.8664 C.ar    1  UNL1        0.0095
     31 N          60.4257   89.3478    7.5873 N.pl3   1  UNL1       -0.3073
     32 C          61.1477   90.0436    8.7029 C.3     1  UNL1        0.0922
     33 C          61.7152   89.2476    9.8405 C.3     1  UNL1        0.0374
     34 C          61.5608   87.7558    9.8626 C.3     1  UNL1        0.0611
     35 C          60.8389   87.0599    8.7469 C.3     1  UNL1        0.0374
     36 C          60.2714   87.8559    7.6093 C.3     1  UNL1        0.0922
     37 N          62.1283   86.9597   11.0001 N.3     1  UNL1       -0.2698
     38 C          62.8532   87.6551   12.1141 C.3     1  UNL1        0.1020
     39 C          63.4207   86.8591   13.2518 C.3     1  UNL1        0.1312
     40 C          64.1456   87.5546   14.3657 C.3     1  UNL1        0.0335
     41 O          63.2633   85.3676   13.2755 O.3     1  UNL1       -0.3559
     42 C          62.5384   84.6721   12.1615 C.3     1  UNL1        0.1312
     43 C          62.3811   83.1806   12.1852 C.3     1  UNL1        0.0335
     44 C          61.9709   85.4682   11.0239 C.3     1  UNL1        0.1020
@<TRIPOS>BOND
     1     1     2    1
     2     2     3    2
     3     3     4    1
     4     4    31    1
     5    31    32    1
     6    32    33    1
     7    33    34    1
     8    34    37    1
     9    37    38    1
    10    38    39    1
    11    39    40    1
    12    39    41    1
    13    41    42    1
    14    42    43    1
    15    42    44    1
    16    34    35    1
    17    35    36    1
    18     4     5    2
    19     5     6    1
    20     6     7    2
    21     7     8    1
    22     8    11    1
    23    11    12    1
    24    12    18    1
    25    18    20    1
    26    20    21    1
    27    21    22    1
    28    21    24    1
    29    24    25   ar
    30    25    26   ar
    31    26    27   ar
    32    27    28   ar
    33    28    29    1
    34    28    30   ar
    35    12    13    2
    36    13    14    1
    37    14    15    2
    38    15    16    1
    39    16    17    2
    40     8     9    2
    41     9    10    1
    42    10     2    1
    43    36    31    1
    44    10     6    1
    45    44    37    1
    46    16    11    1
    47    30    24   ar
    48    18    19    1
    49    22    23    1
@<TRIPOS>MOLECULE
*****
 44 49 0 0 0
SMALL
GASTEIGER

@<TRIPOS>ATOM
      1 C          56.2851   91.1049    5.1777 C.3     1  UNL1        0.0312
      2 C          57.7745   90.9890    5.3123 C.2     1  UNL1        0.0136
      3 C          58.3668   90.2253    6.4594 C.2     1  UNL1        0.0107
      4 C          59.8562   90.1095    6.5940 C.2     1  UNL1        0.0509
      5 C          60.7534   90.7574    5.5814 C.2     1  UNL1        0.0613
      6 C          60.1612   91.5211    4.4343 C.2     1  UNL1        0.2246
      7 N          60.7889   92.2604    3.2901 N.2     1  UNL1       -0.0378
      8 C          59.6874   92.8332    2.4483 C.2     1  UNL1        0.3605
      9 N          58.3789   92.4479    3.0723 N.2     1  UNL1       -0.0547
     10 C          58.6717   91.6369    4.2997 C.3     1  UNL1        0.2976
     11 C          59.8634   93.6482    1.2014 C.3     1  UNL1        0.2246
     12 C          61.0908   94.4920    1.0239 C.2     1  UNL1        0.0436
     13 C          61.2668   95.3070   -0.2230 C.2     1  UNL1        0.0288
     14 C          60.2154   95.2783   -1.2925 C.2     1  UNL1        0.0896
     15 N          58.9880   94.4345   -1.1150 N.am    1  UNL1       -0.1770
     16 C          58.8120   93.6195    0.1319 C.2     1  UNL1        0.2627
     17 O          57.5846   92.7758    0.3094 O.2     1  UNL1       -0.2719
     18 N          62.1423   94.5207    2.0933 N.pl3   1  UNL1       -0.3329
     19 H          61.9296   94.2052    3.0013 H       1  UNL1        0.1466
     20 C          63.5177   95.0303    1.7793 C.3     1  UNL1        0.1211
     21 C          64.4322   94.2286    0.9013 C.3     1  UNL1        0.1522
     22 O          65.2932   93.1547    1.4974 O.3     1  UNL1       -0.3783
     23 H          65.1381   93.1096    2.4539 H       1  UNL1        0.2109
     24 C          64.4857   94.5009   -0.5728 C.ar    1  UNL1        0.0067
     25 C          65.0670   95.7884   -1.0771 C.ar    1  UNL1       -0.0018
     26 C          65.1205   96.0606   -2.5512 C.ar    1  UNL1        0.0006
     27 C          64.5927   95.0454   -3.5211 C.ar    1  UNL1        0.0114
     28 C          64.0114   93.7579   -3.0167 C.ar    1  UNL1        0.0574
     29 CL         63.4835   92.7426   -3.9866 Cl      1  UNL1       -0.0823
     30 C          63.9579   93.4856   -1.5426 C.ar    1  UNL1        0.0095
     31 N          60.4485   89.3457    7.7412 N.pl3   1  UNL1       -0.3073
     32 C          60.3433   87.8499    7.7803 C.3     1  UNL1        0.0922
     33 C          60.9356   87.0861    8.9274 C.3     1  UNL1        0.0374
     34 C          61.6330   87.8182   10.0354 C.3     1  UNL1        0.0611
     35 C          61.7381   89.3140    9.9963 C.3     1  UNL1        0.0374
     36 C          61.1459   90.0778    8.8492 C.3     1  UNL1        0.0922
     37 N          62.2252   87.0545   11.1826 N.3     1  UNL1       -0.2698
     38 C          62.0744   85.5636   11.2486 C.3     1  UNL1        0.1020
     39 C          62.6666   84.7998   12.3957 C.3     1  UNL1        0.1312
     40 C          62.5157   83.3089   12.4617 C.3     1  UNL1        0.0335
     41 O          63.4098   85.5270   13.4769 O.3     1  UNL1       -0.3559
     42 C          63.5606   87.0180   13.4109 C.3     1  UNL1        0.1312
     43 C          64.3038   87.7452   14.4920 C.3     1  UNL1        0.0335
     44 C          62.9684   87.7817   12.2637 C.3     1  UNL1        0.1020
@<TRIPOS>BOND
     1     1     2    1
     2     2     3    2
     3     3     4    1
     4     4    31    1
     5    31    32    1
     6    32    33    1
     7    33    34    1
     8    34    37    1
     9    37    38    1
    10    38    39    1
    11    39    40    1
    12    39    41    1
    13    41    42    1
    14    42    43    1
    15    42    44    1
    16    34    35    1
    17    35    36    1
    18     4     5    2
    19     5     6    1
    20     6     7    2
    21     7     8    1
    22     8    11    1
    23    11    12    1
    24    12    18    1
    25    18    20    1
    26    20    21    1
    27    21    22    1
    28    21    24    1
    29    24    25   ar
    30    25    26   ar
    31    26    27   ar
    32    27    28   ar
    33    28    29    1
    34    28    30   ar
    35    12    13    2
    36    13    14    1
    37    14    15    2
    38    15    16    1
    39    16    17    2
    40     8     9    2
    41     9    10    1
    42    10     2    1
    43    36    31    1
    44    10     6    1
    45    44    37    1
    46    16    11    1
    47    30    24   ar
    48    18    19    1
    49    22    23    1
@<TRIPOS>MOLECULE
*****
 44 49 0 0 0
SMALL
GASTEIGER

@<TRIPOS>ATOM
      1 C          56.2906   91.1883    4.9998 C.3     1  UNL1        0.0312
      2 C          57.7779   91.0673    5.1525 C.2     1  UNL1        0.0136
      3 C          58.3532   90.2776    6.2906 C.2     1  UNL1        0.0107
      4 C          59.8404   90.1566    6.4433 C.2     1  UNL1        0.0509
      5 C          60.7525   90.8254    5.4579 C.2     1  UNL1        0.0613
      6 C          60.1771   91.6151    4.3198 C.2     1  UNL1        0.2246
      7 N          60.8216   92.3786    3.2010 N.2     1  UNL1       -0.0378
      8 C          59.7327   92.9714    2.3568 C.2     1  UNL1        0.3605
      9 N          58.4151   92.5743    2.9539 N.2     1  UNL1       -0.0547
     10 C          58.6898   91.7361    4.1671 C.3     1  UNL1        0.2976
     11 C          59.9270   93.8135    1.1308 C.3     1  UNL1        0.2246
     12 C          59.3296   93.3842   -0.1764 C.2     1  UNL1        0.0436
     13 C          59.5240   94.2264   -1.4024 C.2     1  UNL1        0.0288
     14 C          60.3158   95.4977   -1.3212 C.2     1  UNL1        0.0896
     15 N          60.9133   95.9270   -0.0140 N.am    1  UNL1       -0.1770
     16 C          60.7189   95.0848    1.2120 C.2     1  UNL1        0.2627
     17 O          61.3163   95.5141    2.5191 O.2     1  UNL1       -0.2719
     18 N          58.5377   92.1129   -0.2576 N.pl3   1  UNL1       -0.3329
     19 H          58.9177   91.2733    0.0889 H       1  UNL1        0.1466
     20 C          57.1670   92.1206   -0.8668 C.3     1  UNL1        0.1211
     21 C          56.9981   92.4055   -2.3298 C.3     1  UNL1        0.1522
     22 O          57.7116   91.5631   -3.3453 O.3     1  UNL1       -0.3783
     23 H          58.2354   90.8843   -2.8917 H       1  UNL1        0.2109
     24 C          56.1157   93.5330   -2.7772 C.ar    1  UNL1        0.0067
     25 C          55.2529   94.2506   -1.7820 C.ar    1  UNL1       -0.0018
     26 C          54.3705   95.3780   -2.2294 C.ar    1  UNL1        0.0006
     27 C          54.3510   95.7880   -3.6722 C.ar    1  UNL1        0.0114
     28 C          55.2138   95.0704   -4.6674 C.ar    1  UNL1        0.0574
     29 CL         55.1942   95.4803   -6.1102 Cl      1  UNL1       -0.0823
     30 C          56.0962   93.9429   -4.2200 C.ar    1  UNL1        0.0095
     31 N          60.4157   89.3668    7.5815 N.pl3   1  UNL1       -0.3073
     32 C          61.2026   90.0606    8.6536 C.3     1  UNL1        0.0922
     33 C          61.7779   89.2709    9.7917 C.3     1  UNL1        0.0374
     34 C          61.5663   87.7873    9.8577 C.3     1  UNL1        0.0611
     35 C          60.7794   87.0935    8.7856 C.3     1  UNL1        0.0374
     36 C          60.2041   87.8833    7.6475 C.3     1  UNL1        0.0922
     37 N          62.1416   86.9975   10.9958 N.3     1  UNL1       -0.2698
     38 C          62.0110   85.5033   11.0134 C.3     1  UNL1        0.1020
     39 C          62.5862   84.7134   12.1514 C.3     1  UNL1        0.1312
     40 C          62.4555   83.2192   12.1689 C.3     1  UNL1        0.0335
     41 O          63.2921   85.4177   13.2719 O.3     1  UNL1       -0.3559
     42 C          63.4227   86.9120   13.2544 C.3     1  UNL1        0.1312
     43 C          64.1286   87.6163   14.3749 C.3     1  UNL1        0.0335
     44 C          62.8475   87.7018   12.1163 C.3     1  UNL1        0.1020
@<TRIPOS>BOND
     1     1     2    1
     2     2     3    2
     3     3     4    1
     4     4    31    1
     5    31    32    1
     6    32    33    1
     7    33    34    1
     8    34    37    1
     9    37    38    1
    10    38    39    1
    11    39    40    1
    12    39    41    1
    13    41    42    1
    14    42    43    1
    15    42    44    1
    16    34    35    1
    17    35    36    1
    18     4     5    2
    19     5     6    1
    20     6     7    2
    21     7     8    1
    22     8    11    1
    23    11    12    1
    24    12    18    1
    25    18    20    1
    26    20    21    1
    27    21    22    1
    28    21    24    1
    29    24    25   ar
    30    25    26   ar
    31    26    27   ar
    32    27    28   ar
    33    28    29    1
    34    28    30   ar
    35    12    13    2
    36    13    14    1
    37    14    15    2
    38    15    16    1
    39    16    17    2
    40     8     9    2
    41     9    10    1
    42    10     2    1
    43    36    31    1
    44    10     6    1
    45    44    37    1
    46    16    11    1
    47    30    24   ar
    48    18    19    1
    49    22    23    1
@<TRIPOS>MOLECULE
*****
 44 49 0 0 0
SMALL
GASTEIGER

@<TRIPOS>ATOM
      1 C          58.2334   86.3449    8.2364 C.3     1  UNL1        0.0312
      2 C          59.2441   87.4421    8.0799 C.2     1  UNL1        0.0136
      3 C          59.1231   88.4173    6.9466 C.2     1  UNL1        0.0107
      4 C          60.1337   89.5146    6.7902 C.2     1  UNL1        0.0509
      5 C          61.2655   89.6367    7.7670 C.2     1  UNL1        0.0613
      6 C          61.3865   88.6616    8.9003 C.2     1  UNL1        0.2246
      7 N          62.3868   88.5323   10.0106 N.2     1  UNL1       -0.0378
      8 C          61.9943   87.3551   10.8533 C.2     1  UNL1        0.3605
      9 N          60.7515   86.7568   10.2638 N.2     1  UNL1       -0.0547
     10 C          60.3759   87.5643    9.0568 C.3     1  UNL1        0.2976
     11 C          62.7176   86.8625   12.0716 C.3     1  UNL1        0.2246
     12 C          63.3757   87.8402   12.9995 C.2     1  UNL1        0.0436
     13 C          64.0990   87.3475   14.2178 C.2     1  UNL1        0.0288
     14 C          64.1642   85.8774   14.5082 C.2     1  UNL1        0.0896
     15 N          63.5060   84.8997   13.5803 N.am    1  UNL1       -0.1770
     16 C          62.7827   85.3924   12.3620 C.2     1  UNL1        0.2627
     17 O          62.1246   84.4147   11.4340 O.2     1  UNL1       -0.2719
     18 N          63.3106   89.3103   12.7092 N.pl3   1  UNL1       -0.3329
     19 H          63.5649   89.6482   11.8202 H       1  UNL1        0.1466
     20 C          62.8581   90.2657   13.7734 C.3     1  UNL1        0.1211
     21 C          63.8677   91.0677   14.5398 C.3     1  UNL1        0.1522
     22 O          63.6082   91.4280   15.9726 O.3     1  UNL1       -0.3783
     23 H          62.7501   91.0678   16.2462 H       1  UNL1        0.2109
     24 C          65.1368   91.5095   13.8734 C.ar    1  UNL1        0.0067
     25 C          66.4524   91.3295   14.5711 C.ar    1  UNL1       -0.0018
     26 C          67.7215   91.7713   13.9047 C.ar    1  UNL1        0.0006
     27 C          67.6751   92.3932   12.5404 C.ar    1  UNL1        0.0114
     28 C          66.3596   92.5732   11.8427 C.ar    1  UNL1        0.0574
     29 CL         66.3132   93.1950   10.4784 Cl      1  UNL1       -0.0823
     30 C          65.0905   92.1314   12.5091 C.ar    1  UNL1        0.0095
     31 N          60.0126   90.4898    5.6568 N.pl3   1  UNL1       -0.3073
     32 C          58.6787   91.0884    5.3218 C.3     1  UNL1        0.0922
     33 C          58.5576   92.0636    4.1885 C.3     1  UNL1        0.0374
     34 C          59.7704   92.4401    3.3903 C.3     1  UNL1        0.0611
     35 C          61.1044   91.8415    3.7253 C.3     1  UNL1        0.0374
     36 C          61.2255   90.8663    4.8586 C.3     1  UNL1        0.0922
     37 N          59.6494   93.4153    2.2570 N.3     1  UNL1       -0.2698
     38 C          58.6741   93.1577    1.1468 C.3     1  UNL1        0.1020
     39 C          58.5531   94.1328    0.0134 C.3     1  UNL1        0.1312
     40 C          57.5778   93.8752   -1.0967 C.3     1  UNL1        0.0335
     41 O          59.4073   95.3656   -0.0098 O.3     1  UNL1       -0.3559
     42 C          60.3826   95.6232    1.1004 C.3     1  UNL1        0.1312
     43 C          61.2369   96.8559    1.0772 C.3     1  UNL1        0.0335
     44 C          60.5037   94.6481    2.2338 C.3     1  UNL1        0.1020
@<TRIPOS>BOND
     1     1     2    1
     2     2     3    2
     3     3     4    1
     4     4    31    1
     5    31    32    1
     6    32    33    1
     7    33    34    1
     8    34    37    1
     9    37    38    1
    10    38    39    1
    11    39    40    1
    12    39    41    1
    13    41    42    1
    14    42    43    1
    15    42    44    1
    16    34    35    1
    17    35    36    1
    18     4     5    2
    19     5     6    1
    20     6     7    2
    21     7     8    1
    22     8    11    1
    23    11    12    1
    24    12    18    1
    25    18    20    1
    26    20    21    1
    27    21    22    1
    28    21    24    1
    29    24    25   ar
    30    25    26   ar
    31    26    27   ar
    32    27    28   ar
    33    28    29    1
    34    28    30   ar
    35    12    13    2
    36    13    14    1
    37    14    15    2
    38    15    16    1
    39    16    17    2
    40     8     9    2
    41     9    10    1
    42    10     2    1
    43    36    31    1
    44    10     6    1
    45    44    37    1
    46    16    11    1
    47    30    24   ar
    48    18    19    1
    49    22    23    1
@<TRIPOS>MOLECULE
*****
 44 49 0 0 0
SMALL
GASTEIGER

@<TRIPOS>ATOM
      1 C          58.2273   86.3139    8.3397 C.3     1  UNL1        0.0312
      2 C          59.2434   87.4051    8.1759 C.2     1  UNL1        0.0136
      3 C          59.1238   88.3768    7.0394 C.2     1  UNL1        0.0107
      4 C          60.1397   89.4680    6.8756 C.2     1  UNL1        0.0509
      5 C          61.2754   89.5877    7.8482 C.2     1  UNL1        0.0613
      6 C          61.3950   88.6160    8.9847 C.2     1  UNL1        0.2246
      7 N          62.3982   88.4854   10.0922 N.2     1  UNL1       -0.0378
      8 C          62.0022   87.3134   10.9405 C.2     1  UNL1        0.3605
      9 N          60.7542   86.7197   10.3573 N.2     1  UNL1       -0.0547
     10 C          60.3790   87.5248    9.1485 C.3     1  UNL1        0.2976
     11 C          62.7269   86.8215   12.1582 C.3     1  UNL1        0.2246
     12 C          63.4157   87.7968   13.0661 C.2     1  UNL1        0.0436
     13 C          64.1404   87.3048   14.2838 C.2     1  UNL1        0.0288
     14 C          64.1763   85.8375   14.5936 C.2     1  UNL1        0.0896
     15 N          63.4874   84.8623   13.6857 N.am    1  UNL1       -0.1770
     16 C          62.7628   85.3543   12.4680 C.2     1  UNL1        0.2627
     17 O          62.0739   84.3790   11.5600 O.2     1  UNL1       -0.2719
     18 N          63.3799   89.2640   12.7564 N.pl3   1  UNL1       -0.3329
     19 H          63.6758   89.5884   11.8752 H       1  UNL1        0.1466
     20 C          62.8933   90.2369   13.7891 C.3     1  UNL1        0.1211
     21 C          63.8379   90.7611   14.8297 C.3     1  UNL1        0.1522
     22 O          63.4940   90.6390   16.2846 O.3     1  UNL1       -0.3783
     23 H          62.6338   90.2006   16.3778 H       1  UNL1        0.2109
     24 C          65.1265   91.4075   14.4153 C.ar    1  UNL1        0.0067
     25 C          65.3139   91.8671   12.9998 C.ar    1  UNL1       -0.0018
     26 C          66.6025   92.5135   12.5855 C.ar    1  UNL1        0.0006
     27 C          67.7038   92.7003   13.5866 C.ar    1  UNL1        0.0114
     28 C          67.5164   92.2408   15.0021 C.ar    1  UNL1        0.0574
     29 CL         68.6176   92.4276   16.0033 Cl      1  UNL1       -0.0823
     30 C          66.2278   91.5944   15.4165 C.ar    1  UNL1        0.0095
     31 N          60.0201   90.4397    5.7390 N.pl3   1  UNL1       -0.3073
     32 C          61.2317   90.8041    4.9332 C.3     1  UNL1        0.0922
     33 C          61.1121   91.7757    3.7967 C.3     1  UNL1        0.0374
     34 C          59.7810   92.3830    3.4661 C.3     1  UNL1        0.0611
     35 C          58.5694   92.0185    4.2719 C.3     1  UNL1        0.0374
     36 C          58.6890   91.0469    5.4084 C.3     1  UNL1        0.0922
     37 N          59.6613   93.3546    2.3296 N.3     1  UNL1       -0.2698
     38 C          60.4711   94.6172    2.3340 C.3     1  UNL1        0.1020
     39 C          60.3515   95.5889    1.1975 C.3     1  UNL1        0.1312
     40 C          61.1614   96.8516    1.2019 C.3     1  UNL1        0.0335
     41 O          59.4221   95.2980    0.0567 O.3     1  UNL1       -0.3559
     42 C          58.6123   94.0354    0.0524 C.3     1  UNL1        0.1312
     43 C          57.6829   93.7445   -1.0885 C.3     1  UNL1        0.0335
     44 C          58.7319   93.0637    1.1888 C.3     1  UNL1        0.1020
@<TRIPOS>BOND
     1     1     2    1
     2     2     3    2
     3     3     4    1
     4     4    31    1
     5    31    32    1
     6    32    33    1
     7    33    34    1
     8    34    37    1
     9    37    38    1
    10    38    39    1
    11    39    40    1
    12    39    41    1
    13    41    42    1
    14    42    43    1
    15    42    44    1
    16    34    35    1
    17    35    36    1
    18     4     5    2
    19     5     6    1
    20     6     7    2
    21     7     8    1
    22     8    11    1
    23    11    12    1
    24    12    18    1
    25    18    20    1
    26    20    21    1
    27    21    22    1
    28    21    24    1
    29    24    25   ar
    30    25    26   ar
    31    26    27   ar
    32    27    28   ar
    33    28    29    1
    34    28    30   ar
    35    12    13    2
    36    13    14    1
    37    14    15    2
    38    15    16    1
    39    16    17    2
    40     8     9    2
    41     9    10    1
    42    10     2    1
    43    36    31    1
    44    10     6    1
    45    44    37    1
    46    16    11    1
    47    30    24   ar
    48    18    19    1
    49    22    23    1
@<TRIPOS>MOLECULE
*****
 44 49 0 0 0
SMALL
GASTEIGER

@<TRIPOS>ATOM
      1 C          56.5201   90.8558    5.3280 C.3     1  UNL1        0.0312
      2 C          58.0009   90.7538    5.5443 C.2     1  UNL1        0.0136
      3 C          58.5438   89.8282    6.5924 C.2     1  UNL1        0.0107
      4 C          60.0245   89.7262    6.8087 C.2     1  UNL1        0.0509
      5 C          60.9626   90.5498    5.9768 C.2     1  UNL1        0.0613
      6 C          60.4197   91.4754    4.9287 C.2     1  UNL1        0.2246
      7 N          61.0942   92.4043    3.9633 N.2     1  UNL1       -0.0378
      8 C          60.0303   93.0804    3.1503 C.2     1  UNL1        0.3605
      9 N          58.6982   92.5694    3.6133 N.2     1  UNL1       -0.0547
     10 C          58.9388   91.5774    4.7124 C.3     1  UNL1        0.2976
     11 C          60.2583   94.0903    2.0649 C.3     1  UNL1        0.2246
     12 C          60.7900   93.6521    0.7325 C.2     1  UNL1        0.0436
     13 C          61.0180   94.6621   -0.3529 C.2     1  UNL1        0.0288
     14 C          60.7145   96.1101   -0.1059 C.2     1  UNL1        0.0896
     15 N          60.1828   96.5483    1.2265 N.am    1  UNL1       -0.1770
     16 C          59.9548   95.5383    2.3119 C.2     1  UNL1        0.2627
     17 O          59.4231   95.9765    3.6443 O.2     1  UNL1       -0.2719
     18 N          61.0936   92.2041    0.4854 N.pl3   1  UNL1       -0.3329
     19 H          60.3783   91.5941    0.1931 H       1  UNL1        0.1466
     20 C          62.4870   91.6855    0.6836 C.3     1  UNL1        0.1211
     21 C          63.4448   92.4277    1.5677 C.3     1  UNL1        0.1522
     22 O          63.8154   91.8676    2.9090 O.3     1  UNL1       -0.3783
     23 H          63.3514   91.0272    3.0478 H       1  UNL1        0.2109
     24 C          64.0321   93.7301    1.1106 C.ar    1  UNL1        0.0067
     25 C          64.4069   94.7779    2.1163 C.ar    1  UNL1       -0.0018
     26 C          64.9941   96.0803    1.6591 C.ar    1  UNL1        0.0006
     27 C          65.2067   96.3348    0.1962 C.ar    1  UNL1        0.0114
     28 C          64.8319   95.2869   -0.8094 C.ar    1  UNL1        0.0574
     29 CL         65.0444   95.5414   -2.2723 Cl      1  UNL1       -0.0823
     30 C          64.2446   93.9846   -0.3523 C.ar    1  UNL1        0.0095
     31 N          60.5674   88.8006    7.8569 N.pl3   1  UNL1       -0.3073
     32 C          60.3311   87.3233    7.7481 C.3     1  UNL1        0.0922
     33 C          60.8740   86.3978    8.7962 C.3     1  UNL1        0.0374
     34 C          61.6532   86.9494    9.9531 C.3     1  UNL1        0.0611
     35 C          61.8895   88.4267   10.0619 C.3     1  UNL1        0.0374
     36 C          61.3467   89.3523    9.0138 C.3     1  UNL1        0.0922
     37 N          62.1961   86.0240   11.0013 N.3     1  UNL1       -0.2698
     38 C          62.8497   86.5834   12.2300 C.3     1  UNL1        0.1020
     39 C          63.3926   85.6580   13.2783 C.3     1  UNL1        0.1312
     40 C          64.0462   86.2175   14.5070 C.3     1  UNL1        0.0335
     41 O          63.2820   84.1730   13.0978 O.3     1  UNL1       -0.3559
     42 C          62.6284   83.6136   11.8690 C.3     1  UNL1        0.1312
     43 C          62.5177   82.1286   11.6885 C.3     1  UNL1        0.0335
     44 C          62.0854   84.5390   10.8208 C.3     1  UNL1        0.1020
@<TRIPOS>BOND
     1     1     2    1
     2     2     3    2
     3     3     4    1
     4     4    31    1
     5    31    32    1
     6    32    33    1
     7    33    34    1
     8    34    37    1
     9    37    38    1
    10    38    39    1
    11    39    40    1
    12    39    41    1
    13    41    42    1
    14    42    43    1
    15    42    44    1
    16    34    35    1
    17    35    36    1
    18     4     5    2
    19     5     6    1
    20     6     7    2
    21     7     8    1
    22     8    11    1
    23    11    12    1
    24    12    18    1
    25    18    20    1
    26    20    21    1
    27    21    22    1
    28    21    24    1
    29    24    25   ar
    30    25    26   ar
    31    26    27   ar
    32    27    28   ar
    33    28    29    1
    34    28    30   ar
    35    12    13    2
    36    13    14    1
    37    14    15    2
    38    15    16    1
    39    16    17    2
    40     8     9    2
    41     9    10    1
    42    10     2    1
    43    36    31    1
    44    10     6    1
    45    44    37    1
    46    16    11    1
    47    30    24   ar
    48    18    19    1
    49    22    23    1
@<TRIPOS>MOLECULE
*****
 44 49 0 0 0
SMALL
GASTEIGER

@<TRIPOS>ATOM
      1 C          58.8520   86.7454    8.4788 C.3     1  UNL1        0.0312
      2 C          59.6676   87.9823    8.2443 C.2     1  UNL1        0.0136
      3 C          59.4466   88.8031    7.0084 C.2     1  UNL1        0.0107
      4 C          60.2621   90.0399    6.7738 C.2     1  UNL1        0.0509
      5 C          61.2987   90.4561    7.7751 C.2     1  UNL1        0.0613
      6 C          61.5196   89.6352    9.0110 C.2     1  UNL1        0.2246
      7 N          62.4621   89.7952   10.1669 N.2     1  UNL1       -0.0378
      8 C          62.2290   88.6571   11.1159 C.2     1  UNL1        0.3605
      9 N          61.1425   87.7938   10.5465 N.2     1  UNL1       -0.0547
     10 C          60.7041   88.3983    9.2456 C.3     1  UNL1        0.2976
     11 C          62.9550   88.4234   12.4075 C.3     1  UNL1        0.2246
     12 C          63.2834   87.0255   12.8409 C.2     1  UNL1        0.0436
     13 C          64.0094   86.7918   14.1326 C.2     1  UNL1        0.0288
     14 C          64.4070   87.9560   14.9908 C.2     1  UNL1        0.0896
     15 N          64.0785   89.3540   14.5574 N.am    1  UNL1       -0.1770
     16 C          63.3525   89.5876   13.2657 C.2     1  UNL1        0.2627
     17 O          63.0241   90.9856   12.8323 O.2     1  UNL1       -0.2719
     18 N          62.8859   85.8612   11.9828 N.pl3   1  UNL1       -0.3329
     19 H          62.8293   85.9666   11.0056 H       1  UNL1        0.1466
     20 C          62.5746   84.5363   12.6135 C.3     1  UNL1        0.1211
     21 C          63.6233   83.4651   12.6645 C.3     1  UNL1        0.1522
     22 O          65.0569   83.8302   12.9127 O.3     1  UNL1       -0.3783
     23 H          65.1322   84.7915   13.0177 H       1  UNL1        0.2109
     24 C          63.2385   82.0288   12.4672 C.ar    1  UNL1        0.0067
     25 C          62.8613   81.1844   13.6482 C.ar    1  UNL1       -0.0018
     26 C          62.4765   79.7481   13.4509 C.ar    1  UNL1        0.0006
     27 C          62.4688   79.1561   12.0727 C.ar    1  UNL1        0.0114
     28 C          62.8460   80.0005   10.8917 C.ar    1  UNL1        0.0574
     29 CL         62.8383   79.4086    9.5135 Cl      1  UNL1       -0.0823
     30 C          63.2308   81.4368   11.0890 C.ar    1  UNL1        0.0095
     31 N          60.0411   90.8608    5.5379 N.pl3   1  UNL1       -0.3073
     32 C          61.2066   91.2487    4.6768 C.3     1  UNL1        0.0922
     33 C          60.9856   92.0695    3.4410 C.3     1  UNL1        0.0374
     34 C          59.5993   92.5025    3.0661 C.3     1  UNL1        0.0611
     35 C          58.4338   92.1147    3.9272 C.3     1  UNL1        0.0374
     36 C          58.6548   91.2939    5.1631 C.3     1  UNL1        0.0922
     37 N          59.3782   93.3234    1.8303 N.3     1  UNL1       -0.2698
     38 C          58.4694   92.8201    0.7483 C.3     1  UNL1        0.1020
     39 C          58.2483   93.6409   -0.4876 C.3     1  UNL1        0.1312
     40 C          57.3394   93.1376   -1.5695 C.3     1  UNL1        0.0335
     41 O          58.9361   94.9650   -0.6415 O.3     1  UNL1       -0.3559
     42 C          59.8449   95.4682    0.4405 C.3     1  UNL1        0.1312
     43 C          60.5327   96.7923    0.2866 C.3     1  UNL1        0.0335
     44 C          60.0660   94.6474    1.6764 C.3     1  UNL1        0.1020
@<TRIPOS>BOND
     1     1     2    1
     2     2     3    2
     3     3     4    1
     4     4    31    1
     5    31    32    1
     6    32    33    1
     7    33    34    1
     8    34    37    1
     9    37    38    1
    10    38    39    1
    11    39    40    1
    12    39    41    1
    13    41    42    1
    14    42    43    1
    15    42    44    1
    16    34    35    1
    17    35    36    1
    18     4     5    2
    19     5     6    1
    20     6     7    2
    21     7     8    1
    22     8    11    1
    23    11    12    1
    24    12    18    1
    25    18    20    1
    26    20    21    1
    27    21    22    1
    28    21    24    1
    29    24    25   ar
    30    25    26   ar
    31    26    27   ar
    32    27    28   ar
    33    28    29    1
    34    28    30   ar
    35    12    13    2
    36    13    14    1
    37    14    15    2
    38    15    16    1
    39    16    17    2
    40     8     9    2
    41     9    10    1
    42    10     2    1
    43    36    31    1
    44    10     6    1
    45    44    37    1
    46    16    11    1
    47    30    24   ar
    48    18    19    1
    49    22    23    1
@<TRIPOS>MOLECULE
*****
 44 49 0 0 0
SMALL
GASTEIGER

@<TRIPOS>ATOM
      1 C          59.0505   89.1703   11.5642 C.3     1  UNL1        0.0312
      2 C          59.8112   88.8622   10.3087 C.2     1  UNL1        0.0136
      3 C          59.6073   89.7024    9.0830 C.2     1  UNL1        0.0107
      4 C          60.3679   89.3944    7.8275 C.2     1  UNL1        0.0509
      5 C          61.3325   88.2459    7.7975 C.2     1  UNL1        0.0613
      6 C          61.5363   87.4057    9.0232 C.2     1  UNL1        0.2246
      7 N          62.4130   86.2185    9.2918 N.2     1  UNL1       -0.0378
      8 C          62.1941   85.7929   10.7134 C.2     1  UNL1        0.3605
      9 N          61.1822   86.7170   11.3234 N.2     1  UNL1       -0.0547
     10 C          60.7757   87.7138   10.2788 C.3     1  UNL1        0.2976
     11 C          62.8686   84.6447   11.4038 C.3     1  UNL1        0.2246
     12 C          63.2630   84.7639   12.8461 C.2     1  UNL1        0.0436
     13 C          63.9375   83.6156   13.5365 C.2     1  UNL1        0.0288
     14 C          64.2177   82.3483   12.7846 C.2     1  UNL1        0.0896
     15 N          63.8234   82.2291   11.3423 N.am    1  UNL1       -0.1770
     16 C          63.1488   83.3774   10.6519 C.2     1  UNL1        0.2627
     17 O          62.7544   83.2582    9.2096 O.2     1  UNL1       -0.2719
     18 N          62.9828   86.0311   13.5981 N.pl3   1  UNL1       -0.3329
     19 H          62.0603   86.3675   13.6694 H       1  UNL1        0.1466
     20 C          64.1082   86.7860   14.2413 C.3     1  UNL1        0.1211
     21 C          63.8719   88.1627   14.7880 C.3     1  UNL1        0.1522
     22 O          63.4187   88.3387   16.2070 O.3     1  UNL1       -0.3783
     23 H          63.3279   87.4693   16.6276 H       1  UNL1        0.2109
     24 C          64.0888   89.3635   13.9155 C.ar    1  UNL1        0.0067
     25 C          65.0572   90.4297   14.3342 C.ar    1  UNL1       -0.0018
     26 C          65.2740   91.6304   13.4617 C.ar    1  UNL1        0.0006
     27 C          64.5225   91.7650   12.1706 C.ar    1  UNL1        0.0114
     28 C          63.5541   90.6988   11.7520 C.ar    1  UNL1        0.0574
     29 CL         62.8025   90.8333   10.4608 Cl      1  UNL1       -0.0823
     30 C          63.3372   89.4980   12.6244 C.ar    1  UNL1        0.0095
     31 N          60.1641   90.2347    6.6017 N.pl3   1  UNL1       -0.3073
     32 C          61.3338   90.5886    5.7319 C.3     1  UNL1        0.0922
     33 C          61.1300   91.4289    4.5062 C.3     1  UNL1        0.0374
     34 C          59.7564   91.9153    4.1503 C.3     1  UNL1        0.0611
     35 C          58.5867   91.5614    5.0201 C.3     1  UNL1        0.0374
     36 C          58.7905   90.7211    6.2458 C.3     1  UNL1        0.0922
     37 N          59.5525   92.7556    2.9247 N.3     1  UNL1       -0.2698
     38 C          60.1063   94.1485    2.8696 C.3     1  UNL1        0.1020
     39 C          59.9025   94.9889    1.6440 C.3     1  UNL1        0.1312
     40 C          60.4563   96.3818    1.5890 C.3     1  UNL1        0.0335
     41 O          59.1447   94.4364    0.4733 O.3     1  UNL1       -0.3559
     42 C          58.5909   93.0434    0.5283 C.3     1  UNL1        0.1312
     43 C          57.8331   92.4908   -0.6423 C.3     1  UNL1        0.0335
     44 C          58.7947   92.2030    1.7540 C.3     1  UNL1        0.1020
@<TRIPOS>BOND
     1     1     2    1
     2     2     3    2
     3     3     4    1
     4     4    31    1
     5    31    32    1
     6    32    33    1
     7    33    34    1
     8    34    37    1
     9    37    38    1
    10    38    39    1
    11    39    40    1
    12    39    41    1
    13    41    42    1
    14    42    43    1
    15    42    44    1
    16    34    35    1
    17    35    36    1
    18     4     5    2
    19     5     6    1
    20     6     7    2
    21     7     8    1
    22     8    11    1
    23    11    12    1
    24    12    18    1
    25    18    20    1
    26    20    21    1
    27    21    22    1
    28    21    24    1
    29    24    25   ar
    30    25    26   ar
    31    26    27   ar
    32    27    28   ar
    33    28    29    1
    34    28    30   ar
    35    12    13    2
    36    13    14    1
    37    14    15    2
    38    15    16    1
    39    16    17    2
    40     8     9    2
    41     9    10    1
    42    10     2    1
    43    36    31    1
    44    10     6    1
    45    44    37    1
    46    16    11    1
    47    30    24   ar
    48    18    19    1
    49    22    23    1
