@<TRIPOS>MOLECULE
*****
 30 32 0 0 0
SMALL
GASTEIGER

@<TRIPOS>ATOM
      1 C          63.1341   89.2650   12.0724 C.ar    1  UNL1        0.1048
      2 C          62.1322   89.6924   11.0412 C.ar    1  UNL1        0.0553
      3 C          61.2656   88.6695   10.3681 C.ar    1  UNL1        0.1389
      4 N          61.4011   87.2192   10.7264 N.ar    1  UNL1       -0.1948
      5 C          62.4030   86.7918   11.7577 C.ar    1  UNL1        0.2539
      6 N          63.2695   87.8147   12.4306 N.ar    1  UNL1       -0.2083
      7 N          62.5384   85.3415   12.1159 N.ar    1  UNL1       -0.2008
      8 N          62.2659   84.7364   13.4611 N.ar    1  UNL1       -0.1673
      9 C          62.5292   83.2626   13.3684 C.ar    1  UNL1        0.0806
     10 C          62.3829   82.2691   14.4826 C.3     1  UNL1        0.0540
     11 C          62.9645   82.9569   11.9659 C.ar    1  UNL1        0.0313
     12 C          62.9702   84.2417   11.1919 C.ar    1  UNL1        0.0651
     13 C          63.3424   84.3990    9.7473 C.3     1  UNL1        0.0523
     14 C          65.3939   92.4781   12.6375 C.ar    1  UNL1        0.1318
     15 C          65.7336   92.3335   14.0914 C.ar    1  UNL1        0.0343
     16 C          65.2068   91.1662   14.8722 C.ar    1  UNL1        0.0045
     17 C          64.3403   90.1433   14.1993 C.ar    1  UNL1        0.0208
     18 C          64.0006   90.2878   12.7454 C.ar    1  UNL1        0.1005
     19 N          64.5274   91.4552   11.9646 N.ar    1  UNL1       -0.2292
     20 N          65.9207   93.6454   11.8567 N.pl3   1  UNL1       -0.2889
     21 C          66.4035   94.8711   12.5740 C.3     1  UNL1        0.1137
     22 C          65.9646   93.5871   10.3585 C.3     1  UNL1        0.1242
     23 C          67.0465   94.3090    9.6112 C.3     1  UNL1        0.1636
     24 C          68.7879   92.4561    9.0778 C.3     1  UNL1        0.1742
     25 O          68.4568   93.8001    9.6559 O.3     1  UNL1       -0.3493
     26 N          60.2637   89.0969    9.3369 N.am    1  UNL1       -0.2692
     27 C          59.9351   88.1890    8.1890 C.2     1  UNL1        0.2277
     28 C          58.9332   88.6165    7.1578 C.3     1  UNL1        0.0950
     29 O          60.6083   86.8537    8.0723 O.2     1  UNL1       -0.2747
     30 H          59.8219   89.9734    9.4135 H       1  UNL1        0.1563
@<TRIPOS>BOND
     1    24    25    1
     2    25    23    1
     3    23    22    1
     4    22    20    1
     5    20    21    1
     6    20    14    1
     7    14    15   ar
     8    15    16   ar
     9    16    17   ar
    10    17    18   ar
    11    18     1    1
    12     1     2   ar
    13     2     3   ar
    14     3    26    1
    15    26    27   am
    16    27    28    1
    17    27    29    2
    18     3     4   ar
    19     4     5   ar
    20     5     7    1
    21     7     8   ar
    22     8     9   ar
    23     9    10    1
    24     9    11   ar
    25    11    12   ar
    26    12    13    1
    27     5     6   ar
    28    18    19   ar
    29    19    14   ar
    30     6     1   ar
    31    12     7   ar
    32    26    30    1
@<TRIPOS>MOLECULE
*****
 30 32 0 0 0
SMALL
GASTEIGER

@<TRIPOS>ATOM
      1 C          63.2078   88.7873   12.4920 C.ar    1  UNL1        0.1048
      2 C          62.1397   89.0698   11.4774 C.ar    1  UNL1        0.0553
      3 C          61.3412   87.9414   10.8950 C.ar    1  UNL1        0.1389
      4 N          61.6108   86.5305   11.3272 N.ar    1  UNL1       -0.1948
      5 C          62.6789   86.2481   12.3418 C.ar    1  UNL1        0.2539
      6 N          63.4774   87.3764   12.9242 N.ar    1  UNL1       -0.2083
      7 N          62.9485   84.8372   12.7740 N.ar    1  UNL1       -0.2008
      8 N          62.5671   83.5966   12.0221 N.ar    1  UNL1       -0.1673
      9 C          63.0297   82.4119   12.8173 C.ar    1  UNL1        0.0806
     10 C          62.8555   80.9716   12.4361 C.3     1  UNL1        0.0540
     11 C          63.6971   82.9203   14.0608 C.ar    1  UNL1        0.0313
     12 C          63.6469   84.4192   14.0340 C.ar    1  UNL1        0.0651
     13 C          64.1983   85.3387   15.0830 C.3     1  UNL1        0.0523
     14 C          65.3709   92.1039   12.7589 C.ar    1  UNL1        0.1318
     15 C          65.6033   92.1723   14.2392 C.ar    1  UNL1        0.0343
     16 C          65.0372   91.1125   15.1371 C.ar    1  UNL1        0.0045
     17 C          64.2388   89.9841   14.5547 C.ar    1  UNL1        0.0208
     18 C          64.0063   89.9157   13.0745 C.ar    1  UNL1        0.1005
     19 N          64.5724   90.9755   12.1766 N.ar    1  UNL1       -0.2292
     20 N          65.9370   93.1638   11.8610 N.pl3   1  UNL1       -0.2889
     21 C          66.2609   94.5202   12.4134 C.3     1  UNL1        0.1137
     22 C          66.1791   92.8672   10.4107 C.3     1  UNL1        0.1242
     23 C          67.5822   92.7624    9.8907 C.3     1  UNL1        0.1636
     24 C          67.6438   95.1954    8.9815 C.3     1  UNL1        0.1742
     25 O          68.3529   94.0050    9.5562 O.3     1  UNL1       -0.3493
     26 N          60.2732   88.2239    9.8804 N.am    1  UNL1       -0.2692
     27 C          60.1934   87.4037    8.6271 C.2     1  UNL1        0.2277
     28 C          59.1254   87.6862    7.6125 C.3     1  UNL1        0.0950
     29 O          61.1818   86.3009    8.3883 O.2     1  UNL1       -0.2747
     30 H          59.6245   88.9477   10.0371 H       1  UNL1        0.1563
@<TRIPOS>BOND
     1    24    25    1
     2    25    23    1
     3    23    22    1
     4    22    20    1
     5    20    21    1
     6    20    14    1
     7    14    15   ar
     8    15    16   ar
     9    16    17   ar
    10    17    18   ar
    11    18     1    1
    12     1     2   ar
    13     2     3   ar
    14     3    26    1
    15    26    27   am
    16    27    28    1
    17    27    29    2
    18     3     4   ar
    19     4     5   ar
    20     5     7    1
    21     7     8   ar
    22     8     9   ar
    23     9    10    1
    24     9    11   ar
    25    11    12   ar
    26    12    13    1
    27     5     6   ar
    28    18    19   ar
    29    19    14   ar
    30     6     1   ar
    31    12     7   ar
    32    26    30    1
@<TRIPOS>MOLECULE
*****
 30 32 0 0 0
SMALL
GASTEIGER

@<TRIPOS>ATOM
      1 C          63.6724   88.8723   13.4285 C.ar    1  UNL1        0.1048
      2 C          63.0748   89.2061   12.0938 C.ar    1  UNL1        0.0553
      3 C          62.5774   88.1095   11.1993 C.ar    1  UNL1        0.1389
      4 N          62.6776   86.6791   11.6396 N.ar    1  UNL1       -0.1948
      5 C          63.2752   86.3453   12.9743 C.ar    1  UNL1        0.2539
      6 N          63.7726   87.4419   13.8687 N.ar    1  UNL1       -0.2083
      7 N          63.3755   84.9149   13.4146 N.ar    1  UNL1       -0.2008
      8 N          63.1459   83.7089   12.5527 N.ar    1  UNL1       -0.1673
      9 C          63.3514   82.4879   13.3995 C.ar    1  UNL1        0.0806
     10 C          63.2229   81.0654   12.9414 C.3     1  UNL1        0.0540
     11 C          63.7080   82.9393   14.7848 C.ar    1  UNL1        0.0313
     12 C          63.7228   84.4392   14.7941 C.ar    1  UNL1        0.0651
     13 C          64.0310   85.3105   15.9756 C.3     1  UNL1        0.0523
     14 C          65.7813   91.9596   14.7594 C.ar    1  UNL1        0.1318
     15 C          65.1648   92.1622   16.1117 C.ar    1  UNL1        0.0343
     16 C          64.0508   91.2681   16.5696 C.ar    1  UNL1        0.0045
     17 C          63.5533   90.1715   15.6752 C.ar    1  UNL1        0.0208
     18 C          64.1699   89.9690   14.3229 C.ar    1  UNL1        0.1005
     19 N          65.2838   90.8630   13.8650 N.ar    1  UNL1       -0.2292
     20 N          66.8953   92.8537   14.3014 N.pl3   1  UNL1       -0.2889
     21 C          68.3121   92.5421   14.6829 C.3     1  UNL1        0.1137
     22 C          66.5925   94.0594   13.4620 C.3     1  UNL1        0.1242
     23 C          66.1922   93.8922   12.0261 C.3     1  UNL1        0.1636
     24 C          67.5048   92.4757   10.2881 C.3     1  UNL1        0.1742
     25 O          67.2439   93.7905   10.9613 O.3     1  UNL1       -0.3493
     26 N          61.9797   88.4433    9.8647 N.am    1  UNL1       -0.2692
     27 C          60.4895   88.4753    9.6970 C.2     1  UNL1        0.2277
     28 C          59.8919   88.8091    8.3624 C.3     1  UNL1        0.0950
     29 O          59.5968   88.1734   10.8641 O.2     1  UNL1       -0.2747
     30 H          62.5656   88.6414    9.0987 H       1  UNL1        0.1563
@<TRIPOS>BOND
     1    24    25    1
     2    25    23    1
     3    23    22    1
     4    22    20    1
     5    20    21    1
     6    20    14    1
     7    14    15   ar
     8    15    16   ar
     9    16    17   ar
    10    17    18   ar
    11    18     1    1
    12     1     2   ar
    13     2     3   ar
    14     3    26    1
    15    26    27   am
    16    27    28    1
    17    27    29    2
    18     3     4   ar
    19     4     5   ar
    20     5     7    1
    21     7     8   ar
    22     8     9   ar
    23     9    10    1
    24     9    11   ar
    25    11    12   ar
    26    12    13    1
    27     5     6   ar
    28    18    19   ar
    29    19    14   ar
    30     6     1   ar
    31    12     7   ar
    32    26    30    1
@<TRIPOS>MOLECULE
*****
 30 32 0 0 0
SMALL
GASTEIGER

@<TRIPOS>ATOM
      1 C          62.9883   88.7221   11.9722 C.ar    1  UNL1        0.1048
      2 C          61.8207   88.7044   11.0308 C.ar    1  UNL1        0.0553
      3 C          61.0627   87.4307   10.7998 C.ar    1  UNL1        0.1389
      4 N          61.4725   86.1748   11.5101 N.ar    1  UNL1       -0.1948
      5 C          62.6402   86.1924   12.4515 C.ar    1  UNL1        0.2539
      6 N          63.3981   87.4661   12.6825 N.ar    1  UNL1       -0.2083
      7 N          63.0500   84.9365   13.1619 N.ar    1  UNL1       -0.2008
      8 N          62.8219   83.5352   12.6777 N.ar    1  UNL1       -0.1673
      9 C          63.3907   82.5939   13.6977 C.ar    1  UNL1        0.0806
     10 C          63.3815   81.0961   13.6171 C.3     1  UNL1        0.0540
     11 C          63.9703   83.4134   14.8123 C.ar    1  UNL1        0.0313
     12 C          63.7597   84.8612   14.4812 C.ar    1  UNL1        0.0651
     13 C          64.1843   86.0287   15.3218 C.3     1  UNL1        0.0523
     14 C          65.1880   91.5074   13.7481 C.ar    1  UNL1        0.1318
     15 C          65.2622   92.5429   12.6654 C.ar    1  UNL1        0.0343
     16 C          64.5784   92.3049   11.3517 C.ar    1  UNL1        0.0045
     17 C          63.8205   91.0313   11.1206 C.ar    1  UNL1        0.0208
     18 C          63.7463   89.9957   12.2033 C.ar    1  UNL1        0.1005
     19 N          64.4301   90.2338   13.5170 N.ar    1  UNL1       -0.2292
     20 N          65.8718   91.7454   15.0618 N.pl3   1  UNL1       -0.2889
     21 C          65.0860   92.2495   16.2358 C.3     1  UNL1        0.1137
     22 C          67.3413   91.4794   15.2014 C.3     1  UNL1        0.1242
     23 C          68.3151   92.1419   14.2725 C.3     1  UNL1        0.1636
     24 C          68.9686   94.0213   15.9432 C.3     1  UNL1        0.1742
     25 O          69.3310   93.1042   14.8128 O.3     1  UNL1       -0.3493
     26 N          59.8950   87.4131    9.8584 N.am    1  UNL1       -0.2692
     27 C          60.0133   86.7275    8.5295 C.2     1  UNL1        0.2277
     28 C          58.8456   86.7098    7.5882 C.3     1  UNL1        0.0950
     29 O          61.2992   86.0594    8.1420 O.2     1  UNL1       -0.2747
     30 H          59.0511   87.8516   10.1127 H       1  UNL1        0.1563
@<TRIPOS>BOND
     1    24    25    1
     2    25    23    1
     3    23    22    1
     4    22    20    1
     5    20    21    1
     6    20    14    1
     7    14    15   ar
     8    15    16   ar
     9    16    17   ar
    10    17    18   ar
    11    18     1    1
    12     1     2   ar
    13     2     3   ar
    14     3    26    1
    15    26    27   am
    16    27    28    1
    17    27    29    2
    18     3     4   ar
    19     4     5   ar
    20     5     7    1
    21     7     8   ar
    22     8     9   ar
    23     9    10    1
    24     9    11   ar
    25    11    12   ar
    26    12    13    1
    27     5     6   ar
    28    18    19   ar
    29    19    14   ar
    30     6     1   ar
    31    12     7   ar
    32    26    30    1
@<TRIPOS>MOLECULE
*****
 30 32 0 0 0
SMALL
GASTEIGER

@<TRIPOS>ATOM
      1 C          63.7854   88.7858   13.8404 C.ar    1  UNL1        0.1048
      2 C          64.2091   87.4010   14.2308 C.ar    1  UNL1        0.0553
      3 C          63.7504   86.2213   13.4257 C.ar    1  UNL1        0.1389
      4 N          62.8681   86.4266   12.2302 N.ar    1  UNL1       -0.1948
      5 C          62.4444   87.8116   11.8398 C.ar    1  UNL1        0.2539
      6 N          62.9030   88.9912   12.6448 N.ar    1  UNL1       -0.2083
      7 N          61.5621   88.0169   10.6442 N.ar    1  UNL1       -0.2008
      8 N          60.6733   86.9843   10.0166 N.ar    1  UNL1       -0.1673
      9 C          59.9755   87.6201    8.8509 C.ar    1  UNL1        0.0806
     10 C          58.9927   86.9483    7.9383 C.3     1  UNL1        0.0540
     11 C          60.4330   89.0456    8.7580 C.ar    1  UNL1        0.0313
     12 C          61.4136   89.2908    9.8663 C.ar    1  UNL1        0.0651
     13 C          62.1213   90.5831   10.1474 C.3     1  UNL1        0.0523
     14 C          65.8229   92.0065   14.9475 C.ar    1  UNL1        0.1318
     15 C          65.1613   92.3248   16.2555 C.ar    1  UNL1        0.0343
     16 C          64.0410   91.4633   16.7585 C.ar    1  UNL1        0.0045
     17 C          63.5824   90.2837   15.9535 C.ar    1  UNL1        0.0208
     18 C          64.2440   89.9655   14.6455 C.ar    1  UNL1        0.1005
     19 N          65.3643   90.8269   14.1425 N.ar    1  UNL1       -0.2292
     20 N          66.9431   92.8680   14.4445 N.pl3   1  UNL1       -0.2889
     21 C          68.3602   92.5506   14.8203 C.3     1  UNL1        0.1137
     22 C          66.6464   94.0468   13.5657 C.3     1  UNL1        0.1242
     23 C          66.2998   93.8372   12.1214 C.3     1  UNL1        0.1636
     24 C          66.8914   94.2525    9.6259 C.3     1  UNL1        0.1742
     25 O          66.9551   94.6751   11.0637 O.3     1  UNL1       -0.3493
     26 N          64.1741   84.8364   13.8162 N.am    1  UNL1       -0.2692
     27 C          63.2578   83.9739   14.6326 C.2     1  UNL1        0.2277
     28 C          63.6815   82.5890   15.0230 C.3     1  UNL1        0.0950
     29 O          61.9178   84.4962   15.0585 O.2     1  UNL1       -0.2747
     30 H          65.0537   84.4935   13.5367 H       1  UNL1        0.1563
@<TRIPOS>BOND
     1    24    25    1
     2    25    23    1
     3    23    22    1
     4    22    20    1
     5    20    21    1
     6    20    14    1
     7    14    15   ar
     8    15    16   ar
     9    16    17   ar
    10    17    18   ar
    11    18     1    1
    12     1     2   ar
    13     2     3   ar
    14     3    26    1
    15    26    27   am
    16    27    28    1
    17    27    29    2
    18     3     4   ar
    19     4     5   ar
    20     5     7    1
    21     7     8   ar
    22     8     9   ar
    23     9    10    1
    24     9    11   ar
    25    11    12   ar
    26    12    13    1
    27     5     6   ar
    28    18    19   ar
    29    19    14   ar
    30     6     1   ar
    31    12     7   ar
    32    26    30    1
@<TRIPOS>MOLECULE
*****
 30 32 0 0 0
SMALL
GASTEIGER

@<TRIPOS>ATOM
      1 C          63.0370   88.7978   11.9238 C.ar    1  UNL1        0.1048
      2 C          61.8515   88.7798   11.0050 C.ar    1  UNL1        0.0553
      3 C          61.0810   87.5093   10.7995 C.ar    1  UNL1        0.1389
      4 N          61.4960   86.2568   11.5129 N.ar    1  UNL1       -0.1948
      5 C          62.6815   86.2748   12.4318 C.ar    1  UNL1        0.2539
      6 N          63.4520   87.5453   12.6373 N.ar    1  UNL1       -0.2083
      7 N          63.0965   85.0223   13.1452 N.ar    1  UNL1       -0.2008
      8 N          62.7985   83.6187   12.7082 N.ar    1  UNL1       -0.1673
      9 C          63.4002   82.6824   13.7138 C.ar    1  UNL1        0.0806
     10 C          63.3422   81.1842   13.6687 C.3     1  UNL1        0.0540
     11 C          64.0701   83.5073   14.7724 C.ar    1  UNL1        0.0313
     12 C          63.8825   84.9534   14.4210 C.ar    1  UNL1        0.0651
     13 C          64.3914   86.1250   15.2074 C.3     1  UNL1        0.0523
     14 C          65.3376   91.5574   13.6097 C.ar    1  UNL1        0.1318
     15 C          65.3484   92.6092   12.5404 C.ar    1  UNL1        0.0343
     16 C          64.5888   92.3907   11.2656 C.ar    1  UNL1        0.0045
     17 C          63.8183   91.1202   11.0601 C.ar    1  UNL1        0.0208
     18 C          63.8075   90.0683   12.1293 C.ar    1  UNL1        0.1005
     19 N          64.5671   90.2869   13.4041 N.ar    1  UNL1       -0.2292
     20 N          66.0973   91.7759   14.8845 N.pl3   1  UNL1       -0.2889
     21 C          67.5807   91.5570   14.9205 C.3     1  UNL1        0.1137
     22 C          65.3735   92.2135   16.1233 C.3     1  UNL1        0.1242
     23 C          63.9087   91.9288   16.2761 C.3     1  UNL1        0.1636
     24 C          63.1712   89.4385   16.3409 C.3     1  UNL1        0.1742
     25 O          63.4550   90.7281   17.0524 O.3     1  UNL1       -0.3493
     26 N          59.8956   87.4913    9.8806 N.am    1  UNL1       -0.2692
     27 C          59.9834   86.7917    8.5566 C.2     1  UNL1        0.2277
     28 C          58.7980   86.7738    7.6378 C.3     1  UNL1        0.0950
     29 O          61.2567   86.1101    8.1516 O.2     1  UNL1       -0.2747
     30 H          59.0599   87.9387   10.1464 H       1  UNL1        0.1563
@<TRIPOS>BOND
     1    24    25    1
     2    25    23    1
     3    23    22    1
     4    22    20    1
     5    20    21    1
     6    20    14    1
     7    14    15   ar
     8    15    16   ar
     9    16    17   ar
    10    17    18   ar
    11    18     1    1
    12     1     2   ar
    13     2     3   ar
    14     3    26    1
    15    26    27   am
    16    27    28    1
    17    27    29    2
    18     3     4   ar
    19     4     5   ar
    20     5     7    1
    21     7     8   ar
    22     8     9   ar
    23     9    10    1
    24     9    11   ar
    25    11    12   ar
    26    12    13    1
    27     5     6   ar
    28    18    19   ar
    29    19    14   ar
    30     6     1   ar
    31    12     7   ar
    32    26    30    1
@<TRIPOS>MOLECULE
*****
 30 32 0 0 0
SMALL
GASTEIGER

@<TRIPOS>ATOM
      1 C          64.5011   90.3272   13.4032 C.ar    1  UNL1        0.1048
      2 C          64.5890   89.3178   14.5093 C.ar    1  UNL1        0.0553
      3 C          63.8513   88.0165   14.3975 C.ar    1  UNL1        0.1389
      4 N          63.0258   87.7245   13.1796 N.ar    1  UNL1       -0.1948
      5 C          62.9380   88.7339   12.0734 C.ar    1  UNL1        0.2539
      6 N          63.6756   90.0352   12.1853 N.ar    1  UNL1       -0.2083
      7 N          62.1125   88.4420   10.8555 N.ar    1  UNL1       -0.2008
      8 N          61.3760   89.4522   10.0266 N.ar    1  UNL1       -0.1673
      9 C          60.6869   88.7232    8.9114 C.ar    1  UNL1        0.0806
     10 C          59.8365   89.3457    7.8440 C.3     1  UNL1        0.0540
     11 C          60.9974   87.2623    9.0512 C.ar    1  UNL1        0.0313
     12 C          61.8785   87.0886   10.2526 C.ar    1  UNL1        0.0651
     13 C          62.4289   85.7894   10.7619 C.3     1  UNL1        0.0523
     14 C          66.0437   93.8572   12.4497 C.ar    1  UNL1        0.1318
     15 C          66.7139   94.2311   13.7385 C.ar    1  UNL1        0.0343
     16 C          66.6464   93.3038   14.9155 C.ar    1  UNL1        0.0045
     17 C          65.9088   92.0025   14.8038 C.ar    1  UNL1        0.0208
     18 C          65.2387   91.6285   13.5150 C.ar    1  UNL1        0.1005
     19 N          65.3061   92.5559   12.3380 N.ar    1  UNL1       -0.2292
     20 N          66.1112   94.7846   11.2727 N.pl3   1  UNL1       -0.2889
     21 C          65.9915   96.2657   11.4770 C.3     1  UNL1        0.1137
     22 C          66.2982   94.2308    9.8913 C.3     1  UNL1        0.1242
     23 C          67.5442   94.5478    9.1185 C.3     1  UNL1        0.1636
     24 C          68.8900   92.3525    9.4642 C.3     1  UNL1        0.1742
     25 O          68.8304   93.8512    9.4508 O.3     1  UNL1       -0.3493
     26 N          63.9392   87.0071   15.5036 N.am    1  UNL1       -0.2692
     27 C          63.0349   87.1194   16.6950 C.2     1  UNL1        0.2277
     28 C          63.1227   86.1101   17.8011 C.3     1  UNL1        0.0950
     29 O          62.0426   88.2411   16.7804 O.2     1  UNL1       -0.2747
     30 H          64.5905   86.2709   15.4475 H       1  UNL1        0.1563
@<TRIPOS>BOND
     1    24    25    1
     2    25    23    1
     3    23    22    1
     4    22    20    1
     5    20    21    1
     6    20    14    1
     7    14    15   ar
     8    15    16   ar
     9    16    17   ar
    10    17    18   ar
    11    18     1    1
    12     1     2   ar
    13     2     3   ar
    14     3    26    1
    15    26    27   am
    16    27    28    1
    17    27    29    2
    18     3     4   ar
    19     4     5   ar
    20     5     7    1
    21     7     8   ar
    22     8     9   ar
    23     9    10    1
    24     9    11   ar
    25    11    12   ar
    26    12    13    1
    27     5     6   ar
    28    18    19   ar
    29    19    14   ar
    30     6     1   ar
    31    12     7   ar
    32    26    30    1
@<TRIPOS>MOLECULE
*****
 30 32 0 0 0
SMALL
GASTEIGER

@<TRIPOS>ATOM
      1 C          62.4314   86.7916   10.9827 C.ar    1  UNL1        0.1048
      2 C          61.5675   87.3683    9.9005 C.ar    1  UNL1        0.0553
      3 C          61.2834   88.8409    9.8724 C.ar    1  UNL1        0.1389
      4 N          61.8633   89.7368   10.9265 N.ar    1  UNL1       -0.1948
      5 C          62.7272   89.1601   12.0087 C.ar    1  UNL1        0.2539
      6 N          63.0112   87.6875   12.0368 N.ar    1  UNL1       -0.2083
      7 N          63.3071   90.0560   13.0628 N.ar    1  UNL1       -0.2008
      8 N          63.0994   89.9255   14.5426 N.ar    1  UNL1       -0.1673
      9 C          63.8604   91.0286   15.2166 C.ar    1  UNL1        0.0806
     10 C          63.9310   91.2760   16.6943 C.3     1  UNL1        0.0540
     11 C          64.5384   91.8408   14.1532 C.ar    1  UNL1        0.0313
     12 C          64.1964   91.2397   12.8222 C.ar    1  UNL1        0.0651
     13 C          64.6621   91.7354   11.4852 C.3     1  UNL1        0.0523
     14 C          62.7057   83.0494   12.2752 C.ar    1  UNL1        0.1318
     15 C          63.2836   82.3739   11.0671 C.ar    1  UNL1        0.0343
     16 C          63.5773   83.1709    9.8308 C.ar    1  UNL1        0.0045
     17 C          63.2933   84.6435    9.8026 C.ar    1  UNL1        0.0208
     18 C          62.7155   85.3190   11.0108 C.ar    1  UNL1        0.1005
     19 N          62.4217   84.5220   12.2471 N.ar    1  UNL1       -0.2292
     20 N          62.4120   82.2524   13.5115 N.pl3   1  UNL1       -0.2889
     21 C          62.0051   80.8132   13.3970 C.3     1  UNL1        0.1137
     22 C          62.5251   82.8946   14.8624 C.3     1  UNL1        0.1242
     23 C          63.7935   83.5905   15.2582 C.3     1  UNL1        0.1636
     24 C          64.5719   86.0425   14.8946 C.3     1  UNL1        0.1742
     25 O          63.7627   85.0360   15.6577 O.3     1  UNL1       -0.3493
     26 N          60.4195   89.4176    8.7903 N.am    1  UNL1       -0.2692
     27 C          59.7834   88.5133    7.7766 C.2     1  UNL1        0.2277
     28 C          58.9194   89.0899    6.6945 C.3     1  UNL1        0.0950
     29 O          60.0111   87.0323    7.8451 O.2     1  UNL1       -0.2747
     30 H          60.2700   90.3896    8.7453 H       1  UNL1        0.1563
@<TRIPOS>BOND
     1    24    25    1
     2    25    23    1
     3    23    22    1
     4    22    20    1
     5    20    21    1
     6    20    14    1
     7    14    15   ar
     8    15    16   ar
     9    16    17   ar
    10    17    18   ar
    11    18     1    1
    12     1     2   ar
    13     2     3   ar
    14     3    26    1
    15    26    27   am
    16    27    28    1
    17    27    29    2
    18     3     4   ar
    19     4     5   ar
    20     5     7    1
    21     7     8   ar
    22     8     9   ar
    23     9    10    1
    24     9    11   ar
    25    11    12   ar
    26    12    13    1
    27     5     6   ar
    28    18    19   ar
    29    19    14   ar
    30     6     1   ar
    31    12     7   ar
    32    26    30    1
@<TRIPOS>MOLECULE
*****
 30 32 0 0 0
SMALL
GASTEIGER

@<TRIPOS>ATOM
      1 C          63.5575   87.8631   13.4060 C.ar    1  UNL1        0.1048
      2 C          63.9318   86.5386   14.0022 C.ar    1  UNL1        0.0553
      3 C          63.5705   85.2675   13.2922 C.ar    1  UNL1        0.1389
      4 N          62.8349   85.3211   11.9860 N.ar    1  UNL1       -0.1948
      5 C          62.4606   86.6457   11.3898 C.ar    1  UNL1        0.2539
      6 N          62.8219   87.9167   12.0998 N.ar    1  UNL1       -0.2083
      7 N          61.7250   86.6993   10.0837 N.ar    1  UNL1       -0.2008
      8 N          60.5292   87.5522    9.7796 N.ar    1  UNL1       -0.1673
      9 C          60.1212   87.2895    8.3602 C.ar    1  UNL1        0.0806
     10 C          58.9715   87.9296    7.6404 C.3     1  UNL1        0.0540
     11 C          61.0649   86.2741    7.7871 C.ar    1  UNL1        0.0313
     12 C          62.0561   85.9094    8.8523 C.ar    1  UNL1        0.0651
     13 C          63.1809   84.9271    8.7108 C.3     1  UNL1        0.0523
     14 C          65.0187   91.4878   14.0964 C.ar    1  UNL1        0.1318
     15 C          64.6412   91.6761   15.5358 C.ar    1  UNL1        0.0343
     16 C          63.9025   90.5935   16.2653 C.ar    1  UNL1        0.0045
     17 C          63.5412   89.3225   15.5554 C.ar    1  UNL1        0.0208
     18 C          63.9187   89.1342   14.1160 C.ar    1  UNL1        0.1005
     19 N          64.6575   90.2168   13.3865 N.ar    1  UNL1       -0.2292
     20 N          65.7575   92.5704   13.3669 N.pl3   1  UNL1       -0.2889
     21 C          66.6100   93.5412   14.1288 C.3     1  UNL1        0.1137
     22 C          65.6436   92.6822   11.8754 C.3     1  UNL1        0.1242
     23 C          65.9302   93.9891   11.1973 C.3     1  UNL1        0.1636
     24 C          67.7800   93.5919    9.4167 C.3     1  UNL1        0.1742
     25 O          67.3038   94.2728   10.6655 O.3     1  UNL1       -0.3493
     26 N          63.9449   83.9430   13.8883 N.am    1  UNL1       -0.2692
     27 C          63.4157   82.6741   13.2884 C.2     1  UNL1        0.2277
     28 C          63.7901   81.3496   13.8846 C.3     1  UNL1        0.0950
     29 O          62.5123   82.7297   12.0923 O.2     1  UNL1       -0.2747
     30 H          64.5378   83.9065   14.6734 H       1  UNL1        0.1563
@<TRIPOS>BOND
     1    24    25    1
     2    25    23    1
     3    23    22    1
     4    22    20    1
     5    20    21    1
     6    20    14    1
     7    14    15   ar
     8    15    16   ar
     9    16    17   ar
    10    17    18   ar
    11    18     1    1
    12     1     2   ar
    13     2     3   ar
    14     3    26    1
    15    26    27   am
    16    27    28    1
    17    27    29    2
    18     3     4   ar
    19     4     5   ar
    20     5     7    1
    21     7     8   ar
    22     8     9   ar
    23     9    10    1
    24     9    11   ar
    25    11    12   ar
    26    12    13    1
    27     5     6   ar
    28    18    19   ar
    29    19    14   ar
    30     6     1   ar
    31    12     7   ar
    32    26    30    1
