@<TRIPOS>MOLECULE
*****
 34 38 0 0 0
SMALL
GASTEIGER

@<TRIPOS>ATOM
      1 C          58.5271   93.6915   -1.2194 C.3     1  UNL1        0.0904
      2 C          58.8147   94.4145    0.0630 C.3     1  UNL1        0.0386
      3 C          59.8087   93.8511    1.0349 C.3     1  UNL1        0.0594
      4 C          60.8288   92.9569    1.6750 C.3     1  UNL1        0.0174
      5 C          61.0705   91.7968    0.7553 C.3     1  UNL1        0.0174
      6 C          60.1999   91.9741   -0.4533 C.3     1  UNL1        0.0594
      7 C          59.2335   92.4052   -1.5300 C.3     1  UNL1        0.0386
      8 N          59.4200   93.2438   -0.2805 N.3     1  UNL1       -0.2750
      9 C          57.8747   96.8560   -1.6784 C.3     1  UNL1        0.0738
     10 C          57.2332   95.7094   -2.4023 C.ar    1  UNL1        0.1433
     11 N          56.1792   95.8161   -3.4643 N.ar    1  UNL1       -0.1337
     12 N          55.8277   94.4276   -3.9096 N.ar    1  UNL1       -0.1337
     13 C          56.6644   93.4627   -3.1230 C.ar    1  UNL1        0.1425
     14 N          57.5330   94.2549   -2.1914 N.ar    1  UNL1       -0.3039
     15 C          56.6372   91.9680   -3.2462 C.3     1  UNL1        0.0588
     16 C          55.9255   91.1433   -2.2151 C.3     1  UNL1        0.0080
     17 C          57.3219   91.2980   -4.4006 C.3     1  UNL1        0.0080
     18 C          58.4260   93.8071   -1.2523 C.3     1  UNL1        0.0741
     19 C          58.7514   93.8535   -2.7159 C.3     1  UNL1        0.0419
     20 C          59.9245   94.6541   -3.1983 C.3     1  UNL1        0.1014
     21 C          59.9770   95.1250   -4.6215 C.ar    1  UNL1        0.0251
     22 C          59.2237   94.5315   -5.7749 C.ar    1  UNL1        0.0043
     23 C          59.5731   95.3118   -7.0074 C.ar    1  UNL1        0.0072
     24 C          60.5424   96.3875   -6.6157 C.ar    1  UNL1        0.0352
     25 S          60.7920   96.2721   -5.1411 S.2     1  UNL1       -0.0892
     26 N          61.0454   94.9840   -2.2575 N.am    1  UNL1       -0.3017
     27 C          62.3364   94.2240   -2.3333 C.2     1  UNL1        0.2222
     28 O          62.5066   93.1342   -3.3498 O.2     1  UNL1       -0.2751
     29 H          60.9337   95.6992   -1.5903 H       1  UNL1        0.1497
     30 C          63.4572   94.5539   -1.3925 C.3     1  UNL1        0.0765
     31 C          64.3015   95.7931   -1.4271 C.3     1  UNL1        0.0091
     32 C          65.2966   95.7075   -0.3079 C.3     1  UNL1        0.0005
     33 C          65.0672   94.4154    0.4184 C.3     1  UNL1        0.0005
     34 C          63.9303   93.7023   -0.2519 C.3     1  UNL1        0.0091
@<TRIPOS>BOND
     1     9    10    1
     2    10    11   ar
     3    11    12   ar
     4    12    13   ar
     5    13    15    1
     6    15    16    1
     7    15    17    1
     8    13    14   ar
     9     1    14    1
    10     1     2    1
    11     3     2    1
    12     3     4    1
    13     4     5    1
    14     6     5    1
    15     6     7    1
    16     6     8    1
    17     8    18    1
    18    18    19    1
    19    20    19    1
    20    20    26    1
    21    26    27   am
    22    27    28    2
    23    27    30    1
    24    30    31    1
    25    31    32    1
    26    32    33    1
    27    33    34    1
    28    20    21    1
    29    21    22   ar
    30    22    23   ar
    31    23    24   ar
    32    24    25   ar
    33    14    10   ar
    34     7     1    1
    35    34    30    1
    36    25    21   ar
    37     8     3    1
    38    26    29    1
@<TRIPOS>MOLECULE
*****
 34 38 0 0 0
SMALL
GASTEIGER

@<TRIPOS>ATOM
      1 C          62.6018   95.4284   -1.5836 C.3     1  UNL1        0.0904
      2 C          62.5998   96.1129   -0.2489 C.3     1  UNL1        0.0386
      3 C          63.5386   95.6576    0.8288 C.3     1  UNL1        0.0594
      4 C          64.5995   94.8991    1.5698 C.3     1  UNL1        0.0174
      5 C          65.1437   93.8459    0.6509 C.3     1  UNL1        0.0174
      6 C          64.4191   93.9534   -0.6581 C.3     1  UNL1        0.0594
      7 C          63.5424   94.2886   -1.8406 C.3     1  UNL1        0.0386
      8 N          63.4270   95.0731   -0.5481 N.3     1  UNL1       -0.2750
      9 C          59.6871   96.8230   -1.1255 C.3     1  UNL1        0.0738
     10 C          60.3233   96.5247   -2.4508 C.ar    1  UNL1        0.1433
     11 N          59.7315   96.8151   -3.7982 N.ar    1  UNL1       -0.1337
     12 N          60.7054   96.3535   -4.8414 N.ar    1  UNL1       -0.1337
     13 C          61.8992   95.7779   -4.1389 C.ar    1  UNL1        0.1425
     14 N          61.6630   95.8837   -2.6614 N.ar    1  UNL1       -0.3039
     15 C          63.1155   95.1983   -4.7981 C.3     1  UNL1        0.0588
     16 C          63.0453   93.8475   -5.4465 C.3     1  UNL1        0.0080
     17 C          64.4021   95.9694   -4.8089 C.3     1  UNL1        0.0080
     18 C          62.4883   95.5284   -1.6258 C.3     1  UNL1        0.0741
     19 C          61.7075   94.5201   -2.4156 C.3     1  UNL1        0.0419
     20 C          60.8202   93.5385   -1.7094 C.3     1  UNL1        0.1014
     21 C          59.4240   93.2993   -2.2030 C.ar    1  UNL1        0.0251
     22 C          58.9752   93.3418   -3.6336 C.ar    1  UNL1        0.0043
     23 C          57.5054   93.0444   -3.6673 C.ar    1  UNL1        0.0072
     24 C          57.0458   92.8180   -2.2575 C.ar    1  UNL1        0.0352
     25 S          58.2316   92.9756   -1.3525 S.2     1  UNL1       -0.0892
     26 N          61.3289   92.7958   -0.5094 N.am    1  UNL1       -0.3017
     27 C          60.9146   93.2223    0.8677 C.2     1  UNL1        0.2222
     28 O          59.9917   94.3914    1.0450 O.2     1  UNL1       -0.2751
     29 H          61.9346   92.0285   -0.6257 H       1  UNL1        0.1497
     30 C          61.4233   92.4797    2.0676 C.3     1  UNL1        0.0765
     31 C          60.6876   92.2827    3.3598 C.3     1  UNL1        0.0091
     32 C          61.5666   91.4849    4.2768 C.3     1  UNL1        0.0005
     33 C          62.8457   91.1888    3.5513 C.3     1  UNL1        0.0005
     34 C          62.7571   91.8036    2.1859 C.3     1  UNL1        0.0091
@<TRIPOS>BOND
     1     9    10    1
     2    10    11   ar
     3    11    12   ar
     4    12    13   ar
     5    13    15    1
     6    15    16    1
     7    15    17    1
     8    13    14   ar
     9     1    14    1
    10     1     2    1
    11     3     2    1
    12     3     4    1
    13     4     5    1
    14     6     5    1
    15     6     7    1
    16     6     8    1
    17     8    18    1
    18    18    19    1
    19    20    19    1
    20    20    26    1
    21    26    27   am
    22    27    28    2
    23    27    30    1
    24    30    31    1
    25    31    32    1
    26    32    33    1
    27    33    34    1
    28    20    21    1
    29    21    22   ar
    30    22    23   ar
    31    23    24   ar
    32    24    25   ar
    33    14    10   ar
    34     7     1    1
    35    34    30    1
    36    25    21   ar
    37     8     3    1
    38    26    29    1
@<TRIPOS>MOLECULE
*****
 34 38 0 0 0
SMALL
GASTEIGER

@<TRIPOS>ATOM
      1 C          63.4272   83.5606   13.5986 C.3     1  UNL1        0.0904
      2 C          64.7026   84.2489   13.9853 C.3     1  UNL1        0.0386
      3 C          64.7290   85.1687   15.1699 C.3     1  UNL1        0.0594
      4 C          64.3038   85.9621   16.3698 C.3     1  UNL1        0.0174
      5 C          62.8464   85.6983   16.6071 C.3     1  UNL1        0.0174
      6 C          62.3708   84.7420   15.5539 C.3     1  UNL1        0.0594
      7 C          62.1782   83.7921   14.3964 C.3     1  UNL1        0.0386
      8 N          63.5344   84.4147   14.6656 N.3     1  UNL1       -0.2750
      9 C          64.9243   84.0665   10.7433 C.3     1  UNL1        0.0738
     10 C          64.0888   82.8732   11.1016 C.ar    1  UNL1        0.1433
     11 N          63.7948   81.7031   10.2103 N.ar    1  UNL1       -0.1337
     12 N          62.9250   80.7474   10.9719 N.ar    1  UNL1       -0.1337
     13 C          62.6814   81.3268   12.3338 C.ar    1  UNL1        0.1425
     14 N          63.4006   82.6407   12.4140 N.ar    1  UNL1       -0.3039
     15 C          61.8623   80.7022   13.4242 C.3     1  UNL1        0.0588
     16 C          60.5017   81.2459   13.7454 C.3     1  UNL1        0.0080
     17 C          62.4037   79.5337   14.1934 C.3     1  UNL1        0.0080
     18 C          63.5079   83.4949   13.4810 C.3     1  UNL1        0.0741
     19 C          62.6642   83.8328   12.2877 C.3     1  UNL1        0.0419
     20 C          62.5566   85.2552   11.8240 C.3     1  UNL1        0.1014
     21 C          61.9574   85.5639   10.4839 C.ar    1  UNL1        0.0251
     22 C          62.5874   85.2864    9.1513 C.ar    1  UNL1        0.0043
     23 C          61.6423   85.7553    8.0851 C.ar    1  UNL1        0.0072
     24 C          60.4281   86.3226    8.7588 C.ar    1  UNL1        0.0352
     25 S          60.6228   86.2043   10.2414 S.2     1  UNL1       -0.0892
     26 N          63.0481   86.3691   12.7002 N.am    1  UNL1       -0.3017
     27 C          63.1240   87.7677   12.1636 C.2     1  UNL1        0.2222
     28 O          62.7084   88.0526   10.7508 O.2     1  UNL1       -0.2751
     29 H          63.3209   86.1821   13.6275 H       1  UNL1        0.1497
     30 C          63.6155   88.8815   13.0398 C.3     1  UNL1        0.0765
     31 C          64.2636   88.7258   14.3836 C.3     1  UNL1        0.0091
     32 C          64.5939   90.0947   14.9004 C.3     1  UNL1        0.0005
     33 C          64.1499   91.0965   13.8761 C.3     1  UNL1        0.0005
     34 C          63.5452   90.3467   12.7262 C.3     1  UNL1        0.0091
@<TRIPOS>BOND
     1     9    10    1
     2    10    11   ar
     3    11    12   ar
     4    12    13   ar
     5    13    15    1
     6    15    16    1
     7    15    17    1
     8    13    14   ar
     9     1    14    1
    10     1     2    1
    11     3     2    1
    12     3     4    1
    13     4     5    1
    14     6     5    1
    15     6     7    1
    16     6     8    1
    17     8    18    1
    18    18    19    1
    19    20    19    1
    20    20    26    1
    21    26    27   am
    22    27    28    2
    23    27    30    1
    24    30    31    1
    25    31    32    1
    26    32    33    1
    27    33    34    1
    28    20    21    1
    29    21    22   ar
    30    22    23   ar
    31    23    24   ar
    32    24    25   ar
    33    14    10   ar
    34     7     1    1
    35    34    30    1
    36    25    21   ar
    37     8     3    1
    38    26    29    1
@<TRIPOS>MOLECULE
*****
 34 38 0 0 0
SMALL
GASTEIGER

@<TRIPOS>ATOM
      1 C          62.5835   90.2743   12.4625 C.3     1  UNL1        0.0904
      2 C          61.1593   89.8491   12.6643 C.3     1  UNL1        0.0386
      3 C          60.2924   89.5447   11.4786 C.3     1  UNL1        0.0594
      4 C          59.8213   89.3527   10.0675 C.3     1  UNL1        0.0174
      5 C          60.9654   89.6680    9.1500 C.3     1  UNL1        0.0174
      6 C          62.1435   90.0549    9.9941 C.3     1  UNL1        0.0594
      7 C          63.1408   90.3952   11.0751 C.3     1  UNL1        0.0386
      8 N          61.7275   89.9787   11.4333 N.3     1  UNL1       -0.2750
      9 C          61.9766   89.4187   15.5527 C.3     1  UNL1        0.0738
     10 C          63.1716   90.1854   15.0686 C.ar    1  UNL1        0.1433
     11 N          64.2974   90.6933   15.9198 N.ar    1  UNL1       -0.1337
     12 N          65.2720   91.4005   15.0255 N.ar    1  UNL1       -0.1337
     13 C          64.7488   91.3296   13.6216 C.ar    1  UNL1        0.1425
     14 N          63.4506   90.5786   13.6482 N.ar    1  UNL1       -0.3039
     15 C          65.4079   91.9081   12.4047 C.3     1  UNL1        0.0588
     16 C          66.8891   91.7663   12.2150 C.3     1  UNL1        0.0080
     17 C          64.5858   92.6286   11.3774 C.3     1  UNL1        0.0080
     18 C          62.5944   90.2830   12.6189 C.3     1  UNL1        0.0741
     19 C          63.6936   89.3387   13.0065 C.3     1  UNL1        0.0419
     20 C          63.5853   87.8819   12.6663 C.3     1  UNL1        0.1014
     21 C          63.7869   86.8457   13.7321 C.ar    1  UNL1        0.0251
     22 C          64.1723   87.1103   15.1574 C.ar    1  UNL1        0.0043
     23 C          64.2620   85.7912   15.8658 C.ar    1  UNL1        0.0072
     24 C          63.9320   84.7113   14.8783 C.ar    1  UNL1        0.0352
     25 S          63.6383   85.3631   13.5596 S.2     1  UNL1       -0.0892
     26 N          63.2754   87.4609   11.2603 N.am    1  UNL1       -0.3017
     27 C          62.0935   86.5796   10.9844 C.2     1  UNL1        0.2222
     28 O          61.2213   86.1191   12.1146 O.2     1  UNL1       -0.2751
     29 H          63.8479   87.7631   10.5185 H       1  UNL1        0.1497
     30 C          61.7837   86.1587    9.5784 C.3     1  UNL1        0.0765
     31 C          60.4443   86.2413    8.9082 C.3     1  UNL1        0.0091
     32 C          60.5917   85.7149    7.5113 C.3     1  UNL1        0.0005
     33 C          62.0222   85.3070    7.3182 C.3     1  UNL1        0.0005
     34 C          62.7589   85.5813    8.5958 C.3     1  UNL1        0.0091
@<TRIPOS>BOND
     1     9    10    1
     2    10    11   ar
     3    11    12   ar
     4    12    13   ar
     5    13    15    1
     6    15    16    1
     7    15    17    1
     8    13    14   ar
     9     1    14    1
    10     1     2    1
    11     3     2    1
    12     3     4    1
    13     4     5    1
    14     6     5    1
    15     6     7    1
    16     6     8    1
    17     8    18    1
    18    18    19    1
    19    20    19    1
    20    20    26    1
    21    26    27   am
    22    27    28    2
    23    27    30    1
    24    30    31    1
    25    31    32    1
    26    32    33    1
    27    33    34    1
    28    20    21    1
    29    21    22   ar
    30    22    23   ar
    31    23    24   ar
    32    24    25   ar
    33    14    10   ar
    34     7     1    1
    35    34    30    1
    36    25    21   ar
    37     8     3    1
    38    26    29    1
@<TRIPOS>MOLECULE
*****
 34 38 0 0 0
SMALL
GASTEIGER

@<TRIPOS>ATOM
      1 C          57.4139   93.7605   -3.7635 C.3     1  UNL1        0.0904
      2 C          56.9607   94.5229   -2.5538 C.3     1  UNL1        0.0386
      3 C          57.3567   94.0593   -1.1833 C.3     1  UNL1        0.0594
      4 C          57.9657   93.2637   -0.0670 C.3     1  UNL1        0.0174
      5 C          58.7177   92.1157   -0.6726 C.3     1  UNL1        0.0174
      6 C          58.5734   92.2018   -2.1632 C.3     1  UNL1        0.0594
      7 C          58.2631   92.5345   -3.6027 C.3     1  UNL1        0.0386
      8 N          57.7323   93.4030   -2.4788 N.3     1  UNL1       -0.2750
      9 C          57.3453   96.8554   -4.7963 C.3     1  UNL1        0.0738
     10 C          56.9863   95.6466   -5.6088 C.ar    1  UNL1        0.1433
     11 N          56.5328   95.6481   -7.0386 N.ar    1  UNL1       -0.1337
     12 N          56.2841   94.2266   -7.4475 N.ar    1  UNL1       -0.1337
     13 C          56.5838   93.3464   -6.2705 C.ar    1  UNL1        0.1425
     14 N          57.0178   94.2240   -5.1341 N.ar    1  UNL1       -0.3039
     15 C          56.4696   91.8512   -6.2359 C.3     1  UNL1        0.0588
     16 C          55.4694   91.1962   -5.3301 C.3     1  UNL1        0.0080
     17 C          57.3556   91.0109   -7.1071 C.3     1  UNL1        0.0080
     18 C          57.3362   93.8666   -3.8493 C.3     1  UNL1        0.0741
     19 C          58.3813   94.0537   -4.9090 C.3     1  UNL1        0.0419
     20 C          59.6484   94.7907   -4.5908 C.3     1  UNL1        0.1014
     21 C          60.5660   95.2175   -5.6980 C.ar    1  UNL1        0.0251
     22 C          61.3371   94.3052   -6.6052 C.ar    1  UNL1        0.0043
     23 C          62.1213   95.1555   -7.5602 C.ar    1  UNL1        0.0072
     24 C          61.8348   96.5934   -7.2431 C.ar    1  UNL1        0.0352
     25 S          60.8737   96.6317   -6.0922 S.2     1  UNL1       -0.0892
     26 N          59.9980   95.1009   -3.1654 N.am    1  UNL1       -0.3017
     27 C          61.1876   94.4485   -2.5259 C.2     1  UNL1        0.2222
     28 O          62.0278   93.4858   -3.3117 O.2     1  UNL1       -0.2751
     29 H          59.4466   95.7328   -2.6497 H       1  UNL1        0.1497
     30 C          61.5372   94.7588   -1.1006 C.3     1  UNL1        0.0765
     31 C          62.0542   93.7817   -0.0868 C.3     1  UNL1        0.0091
     32 C          62.2676   94.5197    1.2016 C.3     1  UNL1        0.0005
     33 C          61.8825   95.9529    0.9840 C.3     1  UNL1        0.0005
     34 C          61.4310   96.1007   -0.4388 C.3     1  UNL1        0.0091
@<TRIPOS>BOND
     1     9    10    1
     2    10    11   ar
     3    11    12   ar
     4    12    13   ar
     5    13    15    1
     6    15    16    1
     7    15    17    1
     8    13    14   ar
     9     1    14    1
    10     1     2    1
    11     3     2    1
    12     3     4    1
    13     4     5    1
    14     6     5    1
    15     6     7    1
    16     6     8    1
    17     8    18    1
    18    18    19    1
    19    20    19    1
    20    20    26    1
    21    26    27   am
    22    27    28    2
    23    27    30    1
    24    30    31    1
    25    31    32    1
    26    32    33    1
    27    33    34    1
    28    20    21    1
    29    21    22   ar
    30    22    23   ar
    31    23    24   ar
    32    24    25   ar
    33    14    10   ar
    34     7     1    1
    35    34    30    1
    36    25    21   ar
    37     8     3    1
    38    26    29    1
@<TRIPOS>MOLECULE
*****
 34 38 0 0 0
SMALL
GASTEIGER

@<TRIPOS>ATOM
      1 C          61.6447   90.2032   12.3333 C.3     1  UNL1        0.0904
      2 C          61.2654   89.3780   13.5271 C.3     1  UNL1        0.0386
      3 C          59.8467   88.9247   13.7053 C.3     1  UNL1        0.0594
      4 C          58.3797   88.7072   13.4806 C.3     1  UNL1        0.0174
      5 C          57.9986   89.3984   12.2051 C.3     1  UNL1        0.0174
      6 C          59.2301   90.0431   11.6414 C.3     1  UNL1        0.0594
      7 C          60.6053   90.5752   11.3177 C.3     1  UNL1        0.0386
      8 N          60.3723   89.7503   12.5686 N.3     1  UNL1       -0.2750
      9 C          62.9125   91.5194    9.6296 C.3     1  UNL1        0.0738
     10 C          63.6462   91.2615   10.9123 C.ar    1  UNL1        0.1433
     11 N          65.0914   91.5633   11.1774 N.ar    1  UNL1       -0.1337
     12 N          65.4018   91.1449   12.5839 N.ar    1  UNL1       -0.1337
     13 C          64.1486   90.5845   13.1882 C.ar    1  UNL1        0.1425
     14 N          63.0635   90.6565   12.1550 N.ar    1  UNL1       -0.3039
     15 C          64.0054   90.0464   14.5810 C.3     1  UNL1        0.0588
     16 C          64.2802   88.5979   14.8574 C.3     1  UNL1        0.0080
     17 C          63.5875   90.9568   15.6976 C.3     1  UNL1        0.0080
     18 C          61.7910   90.2036   12.3904 C.3     1  UNL1        0.0741
     19 C          62.7005   89.4694   11.4502 C.3     1  UNL1        0.0419
     20 C          62.5639   87.9854   11.2806 C.3     1  UNL1        0.1014
     21 C          61.8701   87.4293   10.0725 C.ar    1  UNL1        0.0251
     22 C          62.5202   86.6719    8.9529 C.ar    1  UNL1        0.0043
     23 C          61.4561   86.3075    7.9605 C.ar    1  UNL1        0.0072
     24 C          60.1483   86.8397    8.4668 C.ar    1  UNL1        0.0352
     25 S          60.4041   87.5330    9.7722 S.2     1  UNL1       -0.0892
     26 N          63.1212   87.0572   12.3189 N.am    1  UNL1       -0.3017
     27 C          62.6819   85.6235   12.3566 C.2     1  UNL1        0.2222
     28 O          61.6853   85.1179   11.3561 O.2     1  UNL1       -0.2751
     29 H          63.7753   87.3891   12.9756 H       1  UNL1        0.1497
     30 C          63.2392   84.6954   13.3949 C.3     1  UNL1        0.0765
     31 C          62.7821   83.2914   13.6590 C.3     1  UNL1        0.0091
     32 C          63.6118   82.7367   14.7788 C.3     1  UNL1        0.0005
     33 C          64.5817   83.7978   15.2068 C.3     1  UNL1        0.0005
     34 C          64.3514   85.0085   14.3515 C.3     1  UNL1        0.0091
@<TRIPOS>BOND
     1     9    10    1
     2    10    11   ar
     3    11    12   ar
     4    12    13   ar
     5    13    15    1
     6    15    16    1
     7    15    17    1
     8    13    14   ar
     9     1    14    1
    10     1     2    1
    11     3     2    1
    12     3     4    1
    13     4     5    1
    14     6     5    1
    15     6     7    1
    16     6     8    1
    17     8    18    1
    18    18    19    1
    19    20    19    1
    20    20    26    1
    21    26    27   am
    22    27    28    2
    23    27    30    1
    24    30    31    1
    25    31    32    1
    26    32    33    1
    27    33    34    1
    28    20    21    1
    29    21    22   ar
    30    22    23   ar
    31    23    24   ar
    32    24    25   ar
    33    14    10   ar
    34     7     1    1
    35    34    30    1
    36    25    21   ar
    37     8     3    1
    38    26    29    1
@<TRIPOS>MOLECULE
*****
 34 38 0 0 0
SMALL
GASTEIGER

@<TRIPOS>ATOM
      1 C          62.2837   90.4115   12.7164 C.3     1  UNL1        0.0904
      2 C          61.5682   90.7177   11.4342 C.3     1  UNL1        0.0386
      3 C          60.1595   90.2445   11.2300 C.3     1  UNL1        0.0594
      4 C          58.8238   89.6007   11.4568 C.3     1  UNL1        0.0174
      5 C          58.8368   88.9740   12.8196 C.3     1  UNL1        0.0174
      6 C          60.1805   89.2304   13.4349 C.3     1  UNL1        0.0594
      7 C          61.5906   89.6322   13.7945 C.3     1  UNL1        0.0386
      8 N          60.9980   90.0156   12.4525 N.3     1  UNL1       -0.2750
      9 C          64.3155   91.4505   10.3835 C.3     1  UNL1        0.0738
     10 C          64.6263   91.3623   11.8484 C.ar    1  UNL1        0.1433
     11 N          65.9256   91.7362   12.4981 N.ar    1  UNL1       -0.1337
     12 N          65.7947   91.4898   13.9718 N.ar    1  UNL1       -0.1337
     13 C          64.4146   90.9635   14.2331 C.ar    1  UNL1        0.1425
     14 N          63.6925   90.8848   12.9207 N.ar    1  UNL1       -0.3039
     15 C          63.8548   90.5829   15.5716 C.3     1  UNL1        0.0588
     16 C          63.5466   91.6448   16.5851 C.3     1  UNL1        0.0080
     17 C          63.6033   89.1402   15.8967 C.3     1  UNL1        0.0080
     18 C          62.4067   90.4888   12.6567 C.3     1  UNL1        0.0741
     19 C          63.5325   89.4983   12.6958 C.3     1  UNL1        0.0419
     20 C          63.3096   88.0909   12.2274 C.3     1  UNL1        0.1014
     21 C          63.6993   86.9380   13.1043 C.ar    1  UNL1        0.0251
     22 C          64.3961   87.0339   14.4292 C.ar    1  UNL1        0.0043
     23 C          64.5879   85.6419   14.9539 C.ar    1  UNL1        0.0072
     24 C          64.0097   84.6856   13.9534 C.ar    1  UNL1        0.0352
     25 S          63.4605   85.4866   12.8102 S.2     1  UNL1       -0.0892
     26 N          62.6971   87.8362   10.8820 N.am    1  UNL1       -0.3017
     27 C          61.5030   86.9368   10.7597 C.2     1  UNL1        0.2222
     28 O          60.9213   86.2920   11.9827 O.2     1  UNL1       -0.2751
     29 H          63.0789   88.2594   10.0793 H       1  UNL1        0.1497
     30 C          60.8905   86.6822    9.4143 C.3     1  UNL1        0.0765
     31 C          59.5995   87.2560    8.9104 C.3     1  UNL1        0.0091
     32 C          59.3727   86.7375    7.5212 C.3     1  UNL1        0.0005
     33 C          60.5234   85.8431    7.1666 C.3     1  UNL1        0.0005
     34 C          61.4615   85.8089    8.3367 C.3     1  UNL1        0.0091
@<TRIPOS>BOND
     1     9    10    1
     2    10    11   ar
     3    11    12   ar
     4    12    13   ar
     5    13    15    1
     6    15    16    1
     7    15    17    1
     8    13    14   ar
     9     1    14    1
    10     1     2    1
    11     3     2    1
    12     3     4    1
    13     4     5    1
    14     6     5    1
    15     6     7    1
    16     6     8    1
    17     8    18    1
    18    18    19    1
    19    20    19    1
    20    20    26    1
    21    26    27   am
    22    27    28    2
    23    27    30    1
    24    30    31    1
    25    31    32    1
    26    32    33    1
    27    33    34    1
    28    20    21    1
    29    21    22   ar
    30    22    23   ar
    31    23    24   ar
    32    24    25   ar
    33    14    10   ar
    34     7     1    1
    35    34    30    1
    36    25    21   ar
    37     8     3    1
    38    26    29    1
@<TRIPOS>MOLECULE
*****
 34 38 0 0 0
SMALL
GASTEIGER

@<TRIPOS>ATOM
      1 C          63.5871   83.7165   12.0379 C.3     1  UNL1        0.0904
      2 C          62.2944   84.4640   11.8959 C.3     1  UNL1        0.0386
      3 C          61.9208   85.0720   10.5765 C.3     1  UNL1        0.0594
      4 C          61.9599   85.4921    9.1371 C.3     1  UNL1        0.0174
      5 C          63.2368   84.9800    8.5394 C.3     1  UNL1        0.0174
      6 C          63.9869   84.2435    9.6095 C.3     1  UNL1        0.0594
      7 C          64.5062   83.5771   10.8606 C.3     1  UNL1        0.0386
      8 N          63.1735   84.3004   10.8685 N.3     1  UNL1       -0.2750
      9 C          65.9249   84.7847   14.0488 C.3     1  UNL1        0.0738
     10 C          65.0354   83.5995   14.2816 C.ar    1  UNL1        0.1433
     11 N          65.0643   82.6971   15.4795 N.ar    1  UNL1       -0.1337
     12 N          64.0077   81.6485   15.2955 N.ar    1  UNL1       -0.1337
     13 C          63.3258   81.9027   13.9840 C.ar    1  UNL1        0.1425
     14 N          63.9609   83.1085   13.3573 N.ar    1  UNL1       -0.3039
     15 C          62.2053   81.0933   13.4013 C.3     1  UNL1        0.0588
     16 C          62.4263   80.2999   12.1477 C.3     1  UNL1        0.0080
     17 C          60.8638   81.0772   14.0723 C.3     1  UNL1        0.0080
     18 C          63.5472   83.6923   12.1878 C.3     1  UNL1        0.0741
     19 C          64.1298   84.5508   13.2712 C.3     1  UNL1        0.0419
     20 C          63.4104   85.7902   13.7143 C.3     1  UNL1        0.1014
     21 C          63.0726   85.9840   15.1628 C.ar    1  UNL1        0.0251
     22 C          63.6162   87.0568   16.0592 C.ar    1  UNL1        0.0043
     23 C          63.0114   86.8748   17.4197 C.ar    1  UNL1        0.0072
     24 C          62.0939   85.6893   17.3641 C.ar    1  UNL1        0.0352
     25 S          62.1317   85.1388   15.9694 S.2     1  UNL1       -0.0892
     26 N          63.0289   86.8360   12.7088 N.am    1  UNL1       -0.3017
     27 C          63.5521   88.2350   12.8464 C.2     1  UNL1        0.2222
     28 O          64.4570   88.5883   13.9894 O.2     1  UNL1       -0.2751
     29 H          62.4350   86.6041   11.9586 H       1  UNL1        0.1497
     30 C          63.1705   89.2807   11.8410 C.3     1  UNL1        0.0765
     31 C          63.6624   90.6974   11.8124 C.3     1  UNL1        0.0091
     32 C          63.0259   91.3856   10.6413 C.3     1  UNL1        0.0005
     33 C          62.1406   90.3941    9.9462 C.3     1  UNL1        0.0005
     34 C          62.2300   89.0932   10.6876 C.3     1  UNL1        0.0091
@<TRIPOS>BOND
     1     9    10    1
     2    10    11   ar
     3    11    12   ar
     4    12    13   ar
     5    13    15    1
     6    15    16    1
     7    15    17    1
     8    13    14   ar
     9     1    14    1
    10     1     2    1
    11     3     2    1
    12     3     4    1
    13     4     5    1
    14     6     5    1
    15     6     7    1
    16     6     8    1
    17     8    18    1
    18    18    19    1
    19    20    19    1
    20    20    26    1
    21    26    27   am
    22    27    28    2
    23    27    30    1
    24    30    31    1
    25    31    32    1
    26    32    33    1
    27    33    34    1
    28    20    21    1
    29    21    22   ar
    30    22    23   ar
    31    23    24   ar
    32    24    25   ar
    33    14    10   ar
    34     7     1    1
    35    34    30    1
    36    25    21   ar
    37     8     3    1
    38    26    29    1
