@<TRIPOS>MOLECULE
*****
 29 31 0 0 0
SMALL
GASTEIGER

@<TRIPOS>ATOM
      1 C          64.7587   91.6701   11.9237 C.ar    1  UNL1        0.1534
      2 C          63.8099   91.5163   10.7721 C.ar    1  UNL1        0.0351
      3 C          62.8268   90.3836   10.7565 C.ar    1  UNL1        0.0722
      4 CL         61.8779   90.2298    9.6049 Cl      1  UNL1       -0.0809
      5 C          62.7925   89.4045   11.8924 C.ar    1  UNL1        0.0577
      6 C          63.7413   89.5583   13.0440 C.ar    1  UNL1        0.0462
      7 C          64.7244   90.6910   13.0596 C.ar    1  UNL1        0.1602
      8 F          65.6732   90.8448   14.2112 F       1  UNL1       -0.2027
      9 O          65.2497   93.2112   13.2962 O.2     1  UNL1       -0.1498
     10 S          65.7418   92.8029   11.9394 S.O2    1  UNL1        0.0772
     11 O          66.2340   92.3946   10.5825 O.2     1  UNL1       -0.1498
     12 N          66.7249   93.9357   11.9551 N.pl3   1  UNL1       -0.1936
     13 H          67.3674   94.0196   12.6963 H       1  UNL1        0.1758
     14 C          66.7292   94.9406   10.8414 C.ar    1  UNL1        0.1786
     15 N          67.7372   95.0250    9.7338 N.ar    1  UNL1       -0.2214
     16 C          67.3571   96.1741    8.8477 C.ar    1  UNL1        0.1079
     17 C          66.1142   96.7999    9.4077 C.ar    1  UNL1        0.0588
     18 S          65.7261   96.0376   10.6400 S.2     1  UNL1       -0.0497
     19 N          61.8093   88.2717   11.8767 N.pl3   1  UNL1       -0.3319
     20 H          60.9000   88.4041   12.2301 H       1  UNL1        0.1468
     21 C          62.2116   86.9371   11.3226 C.3     1  UNL1        0.0871
     22 C          61.7177   86.5054    9.9736 C.3     1  UNL1        0.0219
     23 C          62.6247   85.7474    9.0501 C.3     1  UNL1        0.0019
     24 C          62.1308   85.3157    7.7012 C.3     1  UNL1        0.0025
     25 C          60.7299   85.6420    7.2757 C.3     1  UNL1        0.0292
     26 C          59.8229   86.4000    8.1992 C.3     1  UNL1        0.1106
     27 O          58.4220   86.7264    7.7737 O.3     1  UNL1       -0.3845
     28 C          60.3168   86.8317    9.5481 C.3     1  UNL1        0.0309
     29 H          58.2655   86.3779    6.8820 H       1  UNL1        0.2103
@<TRIPOS>BOND
     1     9    10    2
     2    10    11    2
     3    10    12    1
     4    12    14    1
     5    14    15   ar
     6    15    16   ar
     7    16    17   ar
     8    17    18   ar
     9    10     1    1
    10     1     2   ar
    11     2     3   ar
    12     3     4    1
    13     3     5   ar
    14     5    19    1
    15    19    21    1
    16    22    21    1
    17    22    23    1
    18    23    24    1
    19    24    25    1
    20    25    26    1
    21    26    27    1
    22    26    28    1
    23     5     6   ar
    24     6     7   ar
    25     7     8    1
    26    18    14   ar
    27     7     1   ar
    28    28    22    1
    29    12    13    1
    30    19    20    1
    31    27    29    1
@<TRIPOS>MOLECULE
*****
 29 31 0 0 0
SMALL
GASTEIGER

@<TRIPOS>ATOM
      1 C          63.7004   90.6836   11.9367 C.ar    1  UNL1        0.1534
      2 C          62.7265   90.7056   10.7961 C.ar    1  UNL1        0.0351
      3 C          61.8687   89.5068   10.5192 C.ar    1  UNL1        0.0722
      4 CL         60.8947   89.5288    9.3785 Cl      1  UNL1       -0.0809
      5 C          61.9847   88.2859   11.3829 C.ar    1  UNL1        0.0577
      6 C          62.9586   88.2638   12.5235 C.ar    1  UNL1        0.0462
      7 C          63.8164   89.4627   12.8004 C.ar    1  UNL1        0.1602
      8 F          64.7904   89.4407   13.9411 F       1  UNL1       -0.2027
      9 O          65.0329   91.8716   10.7909 O.2     1  UNL1       -0.1498
     10 S          64.5583   91.8825   12.2137 S.O2    1  UNL1        0.0772
     11 O          64.0837   91.8934   13.6366 O.2     1  UNL1       -0.1498
     12 N          65.4162   93.0814   12.4907 N.pl3   1  UNL1       -0.1936
     13 H          65.2647   93.9197   11.9972 H       1  UNL1        0.1758
     14 C          66.5050   93.0030   13.5195 C.ar    1  UNL1        0.1786
     15 N          66.7042   93.9491   14.6662 N.ar    1  UNL1       -0.2214
     16 C          67.9081   93.4956   15.4376 C.ar    1  UNL1        0.1079
     17 C          68.4529   92.2691   14.7676 C.ar    1  UNL1        0.0588
     18 S          67.5857   91.9646   13.5820 S.2     1  UNL1       -0.0497
     19 N          61.1268   87.0869   11.1059 N.pl3   1  UNL1       -0.3319
     20 H          60.2453   87.0025   11.5360 H       1  UNL1        0.1468
     21 C          61.6119   86.0168   10.1735 C.3     1  UNL1        0.0871
     22 C          62.5397   84.9498   10.6743 C.3     1  UNL1        0.0219
     23 C          63.3826   84.1739    9.7061 C.3     1  UNL1        0.0019
     24 C          64.3103   83.1069   10.2070 C.3     1  UNL1        0.0025
     25 C          64.3951   82.8158   11.6760 C.3     1  UNL1        0.0292
     26 C          63.5522   83.5917   12.6442 C.3     1  UNL1        0.1106
     27 O          63.6370   83.3006   14.1132 O.3     1  UNL1       -0.3845
     28 C          62.6245   84.6587   12.1434 C.3     1  UNL1        0.0309
     29 H          64.2785   82.5892   14.2654 H       1  UNL1        0.2103
@<TRIPOS>BOND
     1     9    10    2
     2    10    11    2
     3    10    12    1
     4    12    14    1
     5    14    15   ar
     6    15    16   ar
     7    16    17   ar
     8    17    18   ar
     9    10     1    1
    10     1     2   ar
    11     2     3   ar
    12     3     4    1
    13     3     5   ar
    14     5    19    1
    15    19    21    1
    16    22    21    1
    17    22    23    1
    18    23    24    1
    19    24    25    1
    20    25    26    1
    21    26    27    1
    22    26    28    1
    23     5     6   ar
    24     6     7   ar
    25     7     8    1
    26    18    14   ar
    27     7     1   ar
    28    28    22    1
    29    12    13    1
    30    19    20    1
    31    27    29    1
@<TRIPOS>MOLECULE
*****
 29 31 0 0 0
SMALL
GASTEIGER

@<TRIPOS>ATOM
      1 C          62.8010   89.8899   11.8738 C.ar    1  UNL1        0.1534
      2 C          63.4475   89.7680   13.2218 C.ar    1  UNL1        0.0351
      3 C          64.5516   90.7056   13.6115 C.ar    1  UNL1        0.0722
      4 CL         65.1982   90.5838   14.9595 Cl      1  UNL1       -0.0809
      5 C          65.0091   91.7650   12.6532 C.ar    1  UNL1        0.0577
      6 C          64.3626   91.8869   11.3052 C.ar    1  UNL1        0.0462
      7 C          63.2585   90.9493   10.9155 C.ar    1  UNL1        0.1602
      8 F          62.6119   91.0711    9.5675 F       1  UNL1       -0.2027
      9 O          60.7437   89.7111   12.3589 O.2     1  UNL1       -0.1498
     10 S          61.6969   88.9522   11.4840 S.O2    1  UNL1        0.0772
     11 O          62.6501   88.1934   10.6091 O.2     1  UNL1       -0.1498
     12 N          60.5928   88.0147   11.0943 N.pl3   1  UNL1       -0.1936
     13 H          60.1876   87.4237   11.7694 H       1  UNL1        0.1758
     14 C          60.1059   87.9777    9.6759 C.ar    1  UNL1        0.1786
     15 N          59.8902   89.1661    8.7865 N.ar    1  UNL1       -0.2214
     16 C          59.4003   88.6686    7.4589 C.ar    1  UNL1        0.1079
     17 C          59.3132   87.1726    7.5278 C.ar    1  UNL1        0.0588
     18 S          59.7494   86.7456    8.8981 S.2     1  UNL1       -0.0497
     19 N          66.1133   92.7026   13.0430 N.pl3   1  UNL1       -0.3319
     20 H          66.8026   92.4123   13.6831 H       1  UNL1        0.1468
     21 C          66.1671   94.0825   12.4575 C.3     1  UNL1        0.0871
     22 C          66.6740   94.2852   11.0603 C.3     1  UNL1        0.0219
     23 C          66.4332   95.5879   10.3567 C.3     1  UNL1        0.0019
     24 C          66.9401   95.7905    8.9595 C.3     1  UNL1        0.0025
     25 C          67.6878   94.6905    8.2661 C.3     1  UNL1        0.0292
     26 C          67.9286   93.3878    8.9697 C.3     1  UNL1        0.1106
     27 O          68.6763   92.2878    8.2762 O.3     1  UNL1       -0.3845
     28 C          67.4217   93.1852   10.3668 C.3     1  UNL1        0.0309
     29 H          68.9311   92.5806    7.3872 H       1  UNL1        0.2103
@<TRIPOS>BOND
     1     9    10    2
     2    10    11    2
     3    10    12    1
     4    12    14    1
     5    14    15   ar
     6    15    16   ar
     7    16    17   ar
     8    17    18   ar
     9    10     1    1
    10     1     2   ar
    11     2     3   ar
    12     3     4    1
    13     3     5   ar
    14     5    19    1
    15    19    21    1
    16    22    21    1
    17    22    23    1
    18    23    24    1
    19    24    25    1
    20    25    26    1
    21    26    27    1
    22    26    28    1
    23     5     6   ar
    24     6     7   ar
    25     7     8    1
    26    18    14   ar
    27     7     1   ar
    28    28    22    1
    29    12    13    1
    30    19    20    1
    31    27    29    1
@<TRIPOS>MOLECULE
*****
 29 31 0 0 0
SMALL
GASTEIGER

@<TRIPOS>ATOM
      1 C          63.7343   90.8790   11.7864 C.ar    1  UNL1        0.1534
      2 C          62.7194   90.8224   10.6834 C.ar    1  UNL1        0.0351
      3 C          61.8500   89.6103   10.5258 C.ar    1  UNL1        0.0722
      4 CL         60.8349   89.5537    9.4227 Cl      1  UNL1       -0.0809
      5 C          61.9955   88.4548   11.4711 C.ar    1  UNL1        0.0577
      6 C          63.0104   88.5114   12.5741 C.ar    1  UNL1        0.0462
      7 C          63.8798   89.7235   12.7318 C.ar    1  UNL1        0.1602
      8 F          64.8948   89.7802   13.8348 F       1  UNL1       -0.2027
      9 O          64.8285   92.1228   10.4614 O.2     1  UNL1       -0.1498
     10 S          64.6038   92.0911   11.9441 S.O2    1  UNL1        0.0772
     11 O          64.3792   92.0594   13.4268 O.2     1  UNL1       -0.1498
     12 N          65.4733   93.3032   12.1018 N.pl3   1  UNL1       -0.1936
     13 H          65.4124   93.8499   12.9183 H       1  UNL1        0.1758
     14 C          66.4356   93.6824   11.0153 C.ar    1  UNL1        0.1786
     15 N          67.5853   92.8521   10.5265 N.ar    1  UNL1       -0.2214
     16 C          68.2773   93.6150    9.4361 C.ar    1  UNL1        0.1079
     17 C          67.5554   94.9168    9.2510 C.ar    1  UNL1        0.0588
     18 S          66.4171   94.9584   10.2271 S.2     1  UNL1       -0.0497
     19 N          61.1259   87.2427   11.3134 N.pl3   1  UNL1       -0.3319
     20 H          60.3045   87.1532   11.8486 H       1  UNL1        0.1468
     21 C          61.5080   86.1671   10.3404 C.3     1  UNL1        0.0871
     22 C          62.4774   85.0972   10.7475 C.3     1  UNL1        0.0219
     23 C          63.2572   84.3547    9.7032 C.3     1  UNL1        0.0019
     24 C          64.2265   83.2849   10.1103 C.3     1  UNL1        0.0025
     25 C          64.4161   82.9576   11.5619 C.3     1  UNL1        0.0292
     26 C          63.6364   83.7000   12.6062 C.3     1  UNL1        0.1106
     27 O          63.8260   83.3727   14.0577 O.3     1  UNL1       -0.3845
     28 C          62.6671   84.7699   12.1990 C.3     1  UNL1        0.0309
     29 H          64.4826   82.6642   14.1463 H       1  UNL1        0.2103
@<TRIPOS>BOND
     1     9    10    2
     2    10    11    2
     3    10    12    1
     4    12    14    1
     5    14    15   ar
     6    15    16   ar
     7    16    17   ar
     8    17    18   ar
     9    10     1    1
    10     1     2   ar
    11     2     3   ar
    12     3     4    1
    13     3     5   ar
    14     5    19    1
    15    19    21    1
    16    22    21    1
    17    22    23    1
    18    23    24    1
    19    24    25    1
    20    25    26    1
    21    26    27    1
    22    26    28    1
    23     5     6   ar
    24     6     7   ar
    25     7     8    1
    26    18    14   ar
    27     7     1   ar
    28    28    22    1
    29    12    13    1
    30    19    20    1
    31    27    29    1
@<TRIPOS>MOLECULE
*****
 29 31 0 0 0
SMALL
GASTEIGER

@<TRIPOS>ATOM
      1 C          63.7359   86.6809   15.5189 C.ar    1  UNL1        0.1534
      2 C          64.0365   87.4585   14.2719 C.ar    1  UNL1        0.0351
      3 C          63.9218   88.9540   14.2747 C.ar    1  UNL1        0.0722
      4 CL         64.2224   89.7316   13.0276 Cl      1  UNL1       -0.0809
      5 C          63.5065   89.6721   15.5244 C.ar    1  UNL1        0.0577
      6 C          63.2059   88.8945   16.7714 C.ar    1  UNL1        0.0462
      7 C          63.3206   87.3990   16.7686 C.ar    1  UNL1        0.1602
      8 F          63.0200   86.6213   18.0157 F       1  UNL1       -0.2027
      9 O          65.2700   85.2950   15.0437 O.2     1  UNL1       -0.1498
     10 S          63.8506   85.1853   15.5161 S.O2    1  UNL1        0.0772
     11 O          62.4312   85.0755   15.9885 O.2     1  UNL1       -0.1498
     12 N          63.9653   83.6897   15.5134 N.pl3   1  UNL1       -0.1936
     13 H          64.3193   83.2217   16.3039 H       1  UNL1        0.1758
     14 C          63.5408   82.9071   14.3061 C.ar    1  UNL1        0.1786
     15 N          63.6310   81.4187   14.1437 N.ar    1  UNL1       -0.2214
     16 C          63.0975   81.0673   12.7866 C.ar    1  UNL1        0.1079
     17 C          62.6776   82.3386   12.1101 C.ar    1  UNL1        0.0588
     18 S          62.9516   83.4757   13.0493 S.2     1  UNL1       -0.0497
     19 N          63.3918   91.1677   15.5272 N.pl3   1  UNL1       -0.3319
     20 H          62.6460   91.6051   15.0562 H       1  UNL1        0.1468
     21 C          64.4133   91.9969   16.2474 C.3     1  UNL1        0.0871
     22 C          65.7710   92.2049   15.6444 C.3     1  UNL1        0.0219
     23 C          66.9517   92.4736   16.5297 C.3     1  UNL1        0.0019
     24 C          68.3093   92.6814   15.9266 C.3     1  UNL1        0.0025
     25 C          68.4862   92.6206   14.4383 C.3     1  UNL1        0.0292
     26 C          67.3055   92.3519   13.5531 C.3     1  UNL1        0.1106
     27 O          67.4824   92.2911   12.0648 O.3     1  UNL1       -0.3845
     28 C          65.9479   92.1441   14.1561 C.3     1  UNL1        0.0309
     29 H          68.4140   92.4458   11.8433 H       1  UNL1        0.2103
@<TRIPOS>BOND
     1     9    10    2
     2    10    11    2
     3    10    12    1
     4    12    14    1
     5    14    15   ar
     6    15    16   ar
     7    16    17   ar
     8    17    18   ar
     9    10     1    1
    10     1     2   ar
    11     2     3   ar
    12     3     4    1
    13     3     5   ar
    14     5    19    1
    15    19    21    1
    16    22    21    1
    17    22    23    1
    18    23    24    1
    19    24    25    1
    20    25    26    1
    21    26    27    1
    22    26    28    1
    23     5     6   ar
    24     6     7   ar
    25     7     8    1
    26    18    14   ar
    27     7     1   ar
    28    28    22    1
    29    12    13    1
    30    19    20    1
    31    27    29    1
@<TRIPOS>MOLECULE
*****
 29 31 0 0 0
SMALL
GASTEIGER

@<TRIPOS>ATOM
      1 C          64.7964   91.7150   12.1471 C.ar    1  UNL1        0.1534
      2 C          64.8570   90.7500   13.2939 C.ar    1  UNL1        0.0351
      3 C          63.9637   89.5451   13.3082 C.ar    1  UNL1        0.0722
      4 CL         64.0243   88.5801   14.4550 Cl      1  UNL1       -0.0809
      5 C          63.0099   89.3052   12.1757 C.ar    1  UNL1        0.0577
      6 C          62.9493   90.2701   11.0289 C.ar    1  UNL1        0.0462
      7 C          63.8425   91.4750   11.0146 C.ar    1  UNL1        0.1602
      8 F          63.7820   92.4401    9.8678 F       1  UNL1       -0.2027
      9 O          65.9546   92.7061   10.6720 O.2     1  UNL1       -0.1498
     10 S          65.6897   92.9199   12.1328 S.O2    1  UNL1        0.0772
     11 O          65.4248   93.1337   13.5936 O.2     1  UNL1       -0.1498
     12 N          66.5830   94.1248   12.1184 N.pl3   1  UNL1       -0.1936
     13 H          67.0862   94.3742   12.9270 H       1  UNL1        0.1758
     14 C          66.7097   94.9498   10.8720 C.ar    1  UNL1        0.1786
     15 N          67.7338   94.7638    9.7919 N.ar    1  UNL1       -0.2214
     16 C          67.4915   95.8046    8.7393 C.ar    1  UNL1        0.1079
     17 C          66.3176   96.6338    9.1688 C.ar    1  UNL1        0.0588
     18 S          65.8344   96.1055   10.4870 S.2     1  UNL1       -0.0497
     19 N          62.1166   88.1002   12.1900 N.pl3   1  UNL1       -0.3319
     20 H          61.3305   88.0772   12.7823 H       1  UNL1        0.1468
     21 C          62.4209   86.9303   11.3020 C.3     1  UNL1        0.0871
     22 C          61.6291   86.7160   10.0461 C.3     1  UNL1        0.0219
     23 C          60.2818   87.3567    9.8904 C.3     1  UNL1        0.0019
     24 C          59.4901   87.1424    8.6345 C.3     1  UNL1        0.0025
     25 C          60.0457   86.2874    7.5344 C.3     1  UNL1        0.0292
     26 C          61.3929   85.6467    7.6901 C.3     1  UNL1        0.1106
     27 O          61.9485   84.7916    6.5900 O.3     1  UNL1       -0.3845
     28 C          62.1847   85.8610    8.9459 C.3     1  UNL1        0.0309
     29 H          61.3153   84.7574    5.8560 H       1  UNL1        0.2103
@<TRIPOS>BOND
     1     9    10    2
     2    10    11    2
     3    10    12    1
     4    12    14    1
     5    14    15   ar
     6    15    16   ar
     7    16    17   ar
     8    17    18   ar
     9    10     1    1
    10     1     2   ar
    11     2     3   ar
    12     3     4    1
    13     3     5   ar
    14     5    19    1
    15    19    21    1
    16    22    21    1
    17    22    23    1
    18    23    24    1
    19    24    25    1
    20    25    26    1
    21    26    27    1
    22    26    28    1
    23     5     6   ar
    24     6     7   ar
    25     7     8    1
    26    18    14   ar
    27     7     1   ar
    28    28    22    1
    29    12    13    1
    30    19    20    1
    31    27    29    1
@<TRIPOS>MOLECULE
*****
 29 31 0 0 0
SMALL
GASTEIGER

@<TRIPOS>ATOM
      1 C          63.2384   85.7667   13.1034 C.ar    1  UNL1        0.1534
      2 C          62.4752   85.7755   11.8121 C.ar    1  UNL1        0.0351
      3 C          62.2765   87.0621   11.0671 C.ar    1  UNL1        0.0722
      4 CL         61.5133   87.0709    9.7758 Cl      1  UNL1       -0.0809
      5 C          62.8410   88.3400   11.6134 C.ar    1  UNL1        0.0577
      6 C          63.6042   88.3312   12.9047 C.ar    1  UNL1        0.0462
      7 C          63.8029   87.0446   13.6497 C.ar    1  UNL1        0.1602
      8 F          64.5661   87.0358   14.9410 F       1  UNL1       -0.2027
      9 O          62.3407   84.8609   14.7985 O.2     1  UNL1       -0.1498
     10 S          63.4372   84.4800   13.8484 S.O2    1  UNL1        0.0772
     11 O          64.5337   84.0992   12.8984 O.2     1  UNL1       -0.1498
     12 N          63.6359   83.1935   14.5935 N.pl3   1  UNL1       -0.1936
     13 H          64.2900   83.1458   15.3278 H       1  UNL1        0.1758
     14 C          62.8380   81.9794   14.2198 C.ar    1  UNL1        0.1786
     15 N          61.3989   81.7305   14.5618 N.ar    1  UNL1       -0.2214
     16 C          61.0107   80.3984   13.9919 C.ar    1  UNL1        0.1079
     17 C          62.2100   79.8240   13.2976 C.ar    1  UNL1        0.0588
     18 S          63.3394   80.8012   13.4385 S.2     1  UNL1       -0.0497
     19 N          62.6422   89.6267   10.8684 N.pl3   1  UNL1       -0.3319
     20 H          62.4366   89.6113    9.9057 H       1  UNL1        0.1468
     21 C          62.7568   90.9366   11.5900 C.3     1  UNL1        0.0871
     22 C          64.1020   91.5719   11.7824 C.3     1  UNL1        0.0219
     23 C          64.7477   91.5656   13.1362 C.3     1  UNL1        0.0019
     24 C          66.0929   92.2008   13.3285 C.3     1  UNL1        0.0025
     25 C          66.7923   92.8423   12.1669 C.3     1  UNL1        0.0292
     26 C          66.1465   92.8486   10.8130 C.3     1  UNL1        0.1106
     27 O          66.8459   93.4902    9.6515 O.3     1  UNL1       -0.3845
     28 C          64.8014   92.2134   10.6208 C.3     1  UNL1        0.0309
     29 H          67.6975   93.8498    9.9453 H       1  UNL1        0.2103
@<TRIPOS>BOND
     1     9    10    2
     2    10    11    2
     3    10    12    1
     4    12    14    1
     5    14    15   ar
     6    15    16   ar
     7    16    17   ar
     8    17    18   ar
     9    10     1    1
    10     1     2   ar
    11     2     3   ar
    12     3     4    1
    13     3     5   ar
    14     5    19    1
    15    19    21    1
    16    22    21    1
    17    22    23    1
    18    23    24    1
    19    24    25    1
    20    25    26    1
    21    26    27    1
    22    26    28    1
    23     5     6   ar
    24     6     7   ar
    25     7     8    1
    26    18    14   ar
    27     7     1   ar
    28    28    22    1
    29    12    13    1
    30    19    20    1
    31    27    29    1
@<TRIPOS>MOLECULE
*****
 29 31 0 0 0
SMALL
GASTEIGER

@<TRIPOS>ATOM
      1 C          64.2850   91.1288   12.1304 C.ar    1  UNL1        0.1534
      2 C          64.5270   90.1276   13.2208 C.ar    1  UNL1        0.0351
      3 C          63.8172   88.8064   13.1968 C.ar    1  UNL1        0.0722
      4 CL         64.0591   87.8051   14.2872 Cl      1  UNL1       -0.0809
      5 C          62.8654   88.4864   12.0825 C.ar    1  UNL1        0.0577
      6 C          62.6234   89.4877   10.9921 C.ar    1  UNL1        0.0462
      7 C          63.3332   90.8088   11.0161 C.ar    1  UNL1        0.1602
      8 F          63.0913   91.8101    9.9256 F       1  UNL1       -0.2027
      9 O          65.0482   92.4484   10.6553 O.2     1  UNL1       -0.1498
     10 S          64.9949   92.4500   12.1543 S.O2    1  UNL1        0.0772
     11 O          64.9415   92.4516   13.6533 O.2     1  UNL1       -0.1498
     12 N          65.7047   93.7712   12.1782 N.pl3   1  UNL1       -0.1936
     13 H          65.6674   94.3355   12.9840 H       1  UNL1        0.1758
     14 C          66.4713   94.2326   10.9742 C.ar    1  UNL1        0.1786
     15 N          67.6226   93.5153   10.3339 N.ar    1  UNL1       -0.2214
     16 C          68.0841   94.3317    9.1632 C.ar    1  UNL1        0.1079
     17 C          67.2180   95.5536    9.0800 C.ar    1  UNL1        0.0588
     18 S          66.2212   95.4924   10.1994 S.2     1  UNL1       -0.0497
     19 N          62.1555   87.1652   12.0585 N.pl3   1  UNL1       -0.3319
     20 H          61.3234   87.0441   12.5706 H       1  UNL1        0.1468
     21 C          62.7135   86.0285   11.2545 C.3     1  UNL1        0.0871
     22 C          62.8179   84.6607   11.8615 C.3     1  UNL1        0.0219
     23 C          63.0675   83.4687   10.9859 C.3     1  UNL1        0.0019
     24 C          63.1719   82.1010   11.5928 C.3     1  UNL1        0.0025
     25 C          63.0268   81.9253   13.0754 C.3     1  UNL1        0.0292
     26 C          62.7772   83.1173   13.9510 C.3     1  UNL1        0.1106
     27 O          62.6321   82.9417   15.4336 O.3     1  UNL1       -0.3845
     28 C          62.6728   84.4850   13.3441 C.3     1  UNL1        0.0309
     29 H          62.7254   82.0027   15.6587 H       1  UNL1        0.2103
@<TRIPOS>BOND
     1     9    10    2
     2    10    11    2
     3    10    12    1
     4    12    14    1
     5    14    15   ar
     6    15    16   ar
     7    16    17   ar
     8    17    18   ar
     9    10     1    1
    10     1     2   ar
    11     2     3   ar
    12     3     4    1
    13     3     5   ar
    14     5    19    1
    15    19    21    1
    16    22    21    1
    17    22    23    1
    18    23    24    1
    19    24    25    1
    20    25    26    1
    21    26    27    1
    22    26    28    1
    23     5     6   ar
    24     6     7   ar
    25     7     8    1
    26    18    14   ar
    27     7     1   ar
    28    28    22    1
    29    12    13    1
    30    19    20    1
    31    27    29    1
@<TRIPOS>MOLECULE
*****
 29 31 0 0 0
SMALL
GASTEIGER

@<TRIPOS>ATOM
      1 C          63.0846   89.0805   12.3560 C.ar    1  UNL1        0.1534
      2 C          62.2641   88.9954   11.1032 C.ar    1  UNL1        0.0351
      3 C          61.9318   87.6566   10.5139 C.ar    1  UNL1        0.0722
      4 CL         61.1113   87.5714    9.2610 Cl      1  UNL1       -0.0809
      5 C          62.4200   86.4030   11.1774 C.ar    1  UNL1        0.0577
      6 C          63.2405   86.4882   12.4302 C.ar    1  UNL1        0.0462
      7 C          63.5728   87.8269   13.0195 C.ar    1  UNL1        0.1602
      8 F          64.3933   87.9121   14.2724 F       1  UNL1       -0.2027
      9 O          64.1147   90.8053   11.6749 O.2     1  UNL1       -0.1498
     10 S          63.4169   90.4193   12.9454 S.O2    1  UNL1        0.0772
     11 O          62.7192   90.0333   14.2158 O.2     1  UNL1       -0.1498
     12 N          63.7493   91.7580   13.5347 N.pl3   1  UNL1       -0.1936
     13 H          63.0423   92.4328   13.6535 H       1  UNL1        0.1758
     14 C          65.1589   92.0687   13.9430 C.ar    1  UNL1        0.1786
     15 N          65.9311   93.3017   13.5780 N.ar    1  UNL1       -0.2214
     16 C          67.2931   93.1960   14.1975 C.ar    1  UNL1        0.1079
     17 C          67.3626   91.8975   14.9454 C.ar    1  UNL1        0.0588
     18 S          66.0435   91.2008   14.7881 S.2     1  UNL1       -0.0497
     19 N          62.0877   85.0643   10.5880 N.pl3   1  UNL1       -0.3319
     20 H          61.2216   84.9244   10.1413 H       1  UNL1        0.1468
     21 C          63.0749   83.9387   10.6793 C.3     1  UNL1        0.0871
     22 C          62.9265   82.8956   11.7471 C.3     1  UNL1        0.0219
     23 C          62.8703   81.4437   11.3746 C.3     1  UNL1        0.0019
     24 C          62.7219   80.4008   12.4423 C.3     1  UNL1        0.0025
     25 C          62.6298   80.8097   13.8826 C.3     1  UNL1        0.0292
     26 C          62.6860   82.2616   14.2551 C.3     1  UNL1        0.1106
     27 O          62.5939   82.6705   15.6953 O.3     1  UNL1       -0.3845
     28 C          62.8344   83.3045   13.1873 C.3     1  UNL1        0.0309
     29 H          62.5020   81.8804   16.2505 H       1  UNL1        0.2103
@<TRIPOS>BOND
     1     9    10    2
     2    10    11    2
     3    10    12    1
     4    12    14    1
     5    14    15   ar
     6    15    16   ar
     7    16    17   ar
     8    17    18   ar
     9    10     1    1
    10     1     2   ar
    11     2     3   ar
    12     3     4    1
    13     3     5   ar
    14     5    19    1
    15    19    21    1
    16    22    21    1
    17    22    23    1
    18    23    24    1
    19    24    25    1
    20    25    26    1
    21    26    27    1
    22    26    28    1
    23     5     6   ar
    24     6     7   ar
    25     7     8    1
    26    18    14   ar
    27     7     1   ar
    28    28    22    1
    29    12    13    1
    30    19    20    1
    31    27    29    1
