@<TRIPOS>MOLECULE
*****
 25 27 0 0 0
SMALL
GASTEIGER

@<TRIPOS>ATOM
      1 C          61.8280   88.0334   11.1066 C.ar    1  UNL1        0.1453
      2 C          62.7144   87.9149   12.3110 C.ar    1  UNL1        0.0376
      3 C          63.5503   89.0824   12.7447 C.ar    1  UNL1        0.0076
      4 C          63.4999   90.3684   11.9741 C.ar    1  UNL1        0.0536
      5 C          62.6136   90.4868   10.7698 C.ar    1  UNL1        0.0076
      6 C          61.7777   89.3193   10.3360 C.ar    1  UNL1        0.0376
      7 C          64.3359   91.5359   12.4079 C.2     1  UNL1        0.2461
      8 O          64.3870   91.9250   13.8557 O.2     1  UNL1       -0.2701
      9 N          65.1208   92.3143   11.3940 N.am    1  UNL1       -0.2969
     10 H          65.0872   92.0589   10.4437 H       1  UNL1        0.1501
     11 C          65.9567   93.4817   11.8278 C.3     1  UNL1        0.1167
     12 C          66.5105   94.4289   10.8049 C.ar    1  UNL1        0.0005
     13 C          67.2280   93.8961    9.6002 C.ar    1  UNL1        0.0181
     14 C          67.7818   94.8432    8.5773 C.ar    1  UNL1        0.0986
     15 N          67.6182   96.3230    8.7592 N.ar    1  UNL1       -0.2423
     16 C          66.9008   96.8558    9.9639 C.ar    1  UNL1        0.0986
     17 C          66.3469   95.9088   10.9868 C.ar    1  UNL1        0.0181
     18 O          60.9921   86.8659   10.6729 O.3     1  UNL1       -0.4535
     19 C          62.0627   84.2023    5.4042 C.3     1  UNL1        0.0310
     20 C          61.7950   84.8682    6.7214 C.ar    1  UNL1       -0.0217
     21 C          62.8717   84.9278    7.7641 C.ar    1  UNL1       -0.0011
     22 C          62.6040   85.5937    9.0813 C.ar    1  UNL1        0.0372
     23 C          61.2598   86.2000    9.3557 C.ar    1  UNL1        0.1453
     24 C          60.1832   86.1403    8.3130 C.ar    1  UNL1        0.0372
     25 C          60.4508   85.4744    6.9958 C.ar    1  UNL1       -0.0011
@<TRIPOS>BOND
     1    19    20    1
     2    20    21   ar
     3    21    22   ar
     4    22    23   ar
     5    23    18    1
     6    18     1    1
     7     1     2   ar
     8     2     3   ar
     9     3     4   ar
    10     4     7    1
    11     7     8    2
    12     7     9   am
    13     9    11    1
    14    11    12    1
    15    12    13   ar
    16    13    14   ar
    17    14    15   ar
    18    15    16   ar
    19    16    17   ar
    20     4     5   ar
    21     5     6   ar
    22    23    24   ar
    23    24    25   ar
    24    25    20   ar
    25     6     1   ar
    26    17    12   ar
    27     9    10    1
@<TRIPOS>MOLECULE
*****
 25 27 0 0 0
SMALL
GASTEIGER

@<TRIPOS>ATOM
      1 C          64.2646   90.4660   15.0668 C.ar    1  UNL1        0.1453
      2 C          63.4937   90.2397   16.3336 C.ar    1  UNL1        0.0376
      3 C          63.0937   88.8494   16.7299 C.ar    1  UNL1        0.0076
      4 C          63.4646   87.6854   15.8596 C.ar    1  UNL1        0.0536
      5 C          64.2355   87.9116   14.5929 C.ar    1  UNL1        0.0076
      6 C          64.6355   89.3019   14.1965 C.ar    1  UNL1        0.0376
      7 C          63.0646   86.2951   16.2560 C.2     1  UNL1        0.2461
      8 O          62.6335   86.0115   17.6644 O.2     1  UNL1       -0.2701
      9 N          63.0956   85.1884   15.2439 N.am    1  UNL1       -0.2969
     10 H          63.3785   85.3745   14.3195 H       1  UNL1        0.1501
     11 C          62.6956   83.7982   15.6404 C.3     1  UNL1        0.1167
     12 C          62.7448   82.6876   14.6332 C.ar    1  UNL1        0.0005
     13 C          61.6217   81.6964   14.5544 C.ar    1  UNL1        0.0181
     14 C          61.6709   80.5858   13.5474 C.ar    1  UNL1        0.0986
     15 N          62.8431   80.4665   12.6191 N.ar    1  UNL1       -0.2423
     16 C          63.9661   81.4577   12.6980 C.ar    1  UNL1        0.0986
     17 C          63.9170   82.5683   13.7050 C.ar    1  UNL1        0.0181
     18 O          64.6646   91.8562   14.6704 O.3     1  UNL1       -0.4535
     19 C          67.8757   92.7467    9.6809 C.3     1  UNL1        0.0310
     20 C          67.0729   92.5241   10.9283 C.ar    1  UNL1       -0.0217
     21 C          65.5743   92.5530   10.8709 C.ar    1  UNL1       -0.0011
     22 C          64.7716   92.3304   12.1183 C.ar    1  UNL1        0.0372
     23 C          65.4674   92.0789   13.4231 C.ar    1  UNL1        0.1453
     24 C          66.9660   92.0499   13.4804 C.ar    1  UNL1        0.0372
     25 C          67.7688   92.2726   12.2331 C.ar    1  UNL1       -0.0011
@<TRIPOS>BOND
     1    19    20    1
     2    20    21   ar
     3    21    22   ar
     4    22    23   ar
     5    23    18    1
     6    18     1    1
     7     1     2   ar
     8     2     3   ar
     9     3     4   ar
    10     4     7    1
    11     7     8    2
    12     7     9   am
    13     9    11    1
    14    11    12    1
    15    12    13   ar
    16    13    14   ar
    17    14    15   ar
    18    15    16   ar
    19    16    17   ar
    20     4     5   ar
    21     5     6   ar
    22    23    24   ar
    23    24    25   ar
    24    25    20   ar
    25     6     1   ar
    26    17    12   ar
    27     9    10    1
@<TRIPOS>MOLECULE
*****
 25 27 0 0 0
SMALL
GASTEIGER

@<TRIPOS>ATOM
      1 C          63.4605   85.4614   15.8373 C.ar    1  UNL1        0.1453
      2 C          62.9465   86.3721   16.9127 C.ar    1  UNL1        0.0376
      3 C          63.1648   87.8525   16.8095 C.ar    1  UNL1        0.0076
      4 C          63.8972   88.4223   15.6309 C.ar    1  UNL1        0.0536
      5 C          64.4112   87.5117   14.5556 C.ar    1  UNL1        0.0076
      6 C          64.1929   86.0312   14.6587 C.ar    1  UNL1        0.0376
      7 C          64.1155   89.9028   15.5278 C.2     1  UNL1        0.2461
      8 O          63.2718   90.8434   16.3361 O.2     1  UNL1       -0.2701
      9 N          65.1775   90.4426   14.6163 N.am    1  UNL1       -0.2969
     10 H          65.7313   89.8252   14.0858 H       1  UNL1        0.1501
     11 C          65.3958   91.9230   14.5132 C.3     1  UNL1        0.1167
     12 C          65.5220   92.5705   13.1660 C.ar    1  UNL1        0.0005
     13 C          64.9003   91.9256   11.9628 C.ar    1  UNL1        0.0181
     14 C          65.0265   92.5731   10.6156 C.ar    1  UNL1        0.0986
     15 N          65.7743   93.8653   10.4717 N.ar    1  UNL1       -0.2423
     16 C          66.3959   94.5102   11.6749 C.ar    1  UNL1        0.0986
     17 C          66.2698   93.8628   13.0221 C.ar    1  UNL1        0.0181
     18 O          63.2422   83.9810   15.9405 O.3     1  UNL1       -0.4535
     19 C          62.9697   80.6348   10.9677 C.3     1  UNL1        0.0310
     20 C          63.0379   81.4714   12.2109 C.ar    1  UNL1       -0.0217
     21 C          64.1943   82.4020   12.4262 C.ar    1  UNL1       -0.0011
     22 C          64.2624   83.2386   13.6694 C.ar    1  UNL1        0.0372
     23 C          63.1741   83.1445   14.6973 C.ar    1  UNL1        0.1453
     24 C          62.0176   82.2138   14.4820 C.ar    1  UNL1        0.0372
     25 C          61.9495   81.3772   13.2388 C.ar    1  UNL1       -0.0011
@<TRIPOS>BOND
     1    19    20    1
     2    20    21   ar
     3    21    22   ar
     4    22    23   ar
     5    23    18    1
     6    18     1    1
     7     1     2   ar
     8     2     3   ar
     9     3     4   ar
    10     4     7    1
    11     7     8    2
    12     7     9   am
    13     9    11    1
    14    11    12    1
    15    12    13   ar
    16    13    14   ar
    17    14    15   ar
    18    15    16   ar
    19    16    17   ar
    20     4     5   ar
    21     5     6   ar
    22    23    24   ar
    23    24    25   ar
    24    25    20   ar
    25     6     1   ar
    26    17    12   ar
    27     9    10    1
@<TRIPOS>MOLECULE
*****
 25 27 0 0 0
SMALL
GASTEIGER

@<TRIPOS>ATOM
      1 C          61.4914   88.3358   10.8416 C.ar    1  UNL1        0.1453
      2 C          61.4404   89.7213   10.2691 C.ar    1  UNL1        0.0376
      3 C          62.3447   90.7895   10.8085 C.ar    1  UNL1        0.0076
      4 C          63.3002   90.4722   11.9205 C.ar    1  UNL1        0.0536
      5 C          63.3513   89.0867   12.4930 C.ar    1  UNL1        0.0076
      6 C          62.4469   88.0185   11.9535 C.ar    1  UNL1        0.0376
      7 C          64.2046   91.5405   12.4599 C.2     1  UNL1        0.2461
      8 O          64.2610   91.8004   13.9361 O.2     1  UNL1       -0.2701
      9 N          65.0526   92.3488   11.5231 N.am    1  UNL1       -0.2969
     10 H          65.0156   92.1782   10.5542 H       1  UNL1        0.1501
     11 C          65.9569   93.4170   12.0626 C.3     1  UNL1        0.1167
     12 C          66.8674   93.1167   13.2163 C.ar    1  UNL1        0.0005
     13 C          67.8577   91.9944   13.1178 C.ar    1  UNL1        0.0181
     14 C          68.7682   91.6941   14.2714 C.ar    1  UNL1        0.0986
     15 N          68.6884   92.5162   15.5235 N.ar    1  UNL1       -0.2423
     16 C          67.6981   93.6385   15.6219 C.ar    1  UNL1        0.0986
     17 C          66.7876   93.9388   14.4684 C.ar    1  UNL1        0.0181
     18 O          60.5870   87.2676   10.3021 O.3     1  UNL1       -0.4535
     19 C          62.2514   84.0668    5.5079 C.3     1  UNL1        0.0310
     20 C          61.8353   84.8670    6.7064 C.ar    1  UNL1       -0.0217
     21 C          62.8263   85.1595    7.7938 C.ar    1  UNL1       -0.0011
     22 C          62.4102   85.9597    8.9924 C.ar    1  UNL1        0.0372
     23 C          61.0031   86.4674    9.1036 C.ar    1  UNL1        0.1453
     24 C          60.0122   86.1749    8.0162 C.ar    1  UNL1        0.0372
     25 C          60.4283   85.3747    6.8176 C.ar    1  UNL1       -0.0011
@<TRIPOS>BOND
     1    19    20    1
     2    20    21   ar
     3    21    22   ar
     4    22    23   ar
     5    23    18    1
     6    18     1    1
     7     1     2   ar
     8     2     3   ar
     9     3     4   ar
    10     4     7    1
    11     7     8    2
    12     7     9   am
    13     9    11    1
    14    11    12    1
    15    12    13   ar
    16    13    14   ar
    17    14    15   ar
    18    15    16   ar
    19    16    17   ar
    20     4     5   ar
    21     5     6   ar
    22    23    24   ar
    23    24    25   ar
    24    25    20   ar
    25     6     1   ar
    26    17    12   ar
    27     9    10    1
@<TRIPOS>MOLECULE
*****
 25 27 0 0 0
SMALL
GASTEIGER

@<TRIPOS>ATOM
      1 C          63.3491   84.9177   15.7249 C.ar    1  UNL1        0.1453
      2 C          64.1094   85.5484   14.5961 C.ar    1  UNL1        0.0376
      3 C          64.3136   87.0342   14.5672 C.ar    1  UNL1        0.0076
      4 C          63.7577   87.8892   15.6671 C.ar    1  UNL1        0.0536
      5 C          62.9975   87.2585   16.7959 C.ar    1  UNL1        0.0076
      6 C          62.7931   85.7727   16.8248 C.ar    1  UNL1        0.0376
      7 C          63.9620   89.3750   15.6382 C.2     1  UNL1        0.2461
      8 O          63.2927   90.2441   16.6612 O.2     1  UNL1       -0.2701
      9 N          64.8356   89.9916   14.5863 N.am    1  UNL1       -0.2969
     10 H          65.2750   89.4211   13.9148 H       1  UNL1        0.1501
     11 C          65.0399   91.4773   14.5574 C.3     1  UNL1        0.1167
     12 C          66.4178   92.0482   14.7177 C.ar    1  UNL1        0.0005
     13 C          66.7480   92.8847   15.9182 C.ar    1  UNL1        0.0181
     14 C          68.1257   93.4556   16.0786 C.ar    1  UNL1        0.0986
     15 N          69.1734   93.1899   15.0385 N.ar    1  UNL1       -0.2423
     16 C          68.8432   92.3533   13.8380 C.ar    1  UNL1        0.0986
     17 C          67.4654   91.7825   13.6776 C.ar    1  UNL1        0.0181
     18 O          63.1448   83.4320   15.7538 O.3     1  UNL1       -0.4535
     19 C          62.9417   80.3313   10.6211 C.3     1  UNL1        0.0310
     20 C          62.9924   81.1065   11.9043 C.ar    1  UNL1       -0.0217
     21 C          61.9810   80.8431   12.9802 C.ar    1  UNL1       -0.0011
     22 C          62.0318   81.6182   14.2633 C.ar    1  UNL1        0.0372
     23 C          63.0940   82.6568   14.4706 C.ar    1  UNL1        0.1453
     24 C          64.1054   82.9202   13.3947 C.ar    1  UNL1        0.0372
     25 C          64.0547   82.1450   12.1116 C.ar    1  UNL1       -0.0011
@<TRIPOS>BOND
     1    19    20    1
     2    20    21   ar
     3    21    22   ar
     4    22    23   ar
     5    23    18    1
     6    18     1    1
     7     1     2   ar
     8     2     3   ar
     9     3     4   ar
    10     4     7    1
    11     7     8    2
    12     7     9   am
    13     9    11    1
    14    11    12    1
    15    12    13   ar
    16    13    14   ar
    17    14    15   ar
    18    15    16   ar
    19    16    17   ar
    20     4     5   ar
    21     5     6   ar
    22    23    24   ar
    23    24    25   ar
    24    25    20   ar
    25     6     1   ar
    26    17    12   ar
    27     9    10    1
@<TRIPOS>MOLECULE
*****
 25 27 0 0 0
SMALL
GASTEIGER

@<TRIPOS>ATOM
      1 C          63.7147   86.1726   13.9773 C.ar    1  UNL1        0.1453
      2 C          63.1087   86.5919   12.6707 C.ar    1  UNL1        0.0376
      3 C          63.1789   88.0262   12.2373 C.ar    1  UNL1        0.0076
      4 C          63.8551   89.0413   13.1105 C.ar    1  UNL1        0.0536
      5 C          64.4610   88.6221   14.4170 C.ar    1  UNL1        0.0076
      6 C          64.3909   87.1877   14.8504 C.ar    1  UNL1        0.0376
      7 C          63.9252   90.4756   12.6770 C.2     1  UNL1        0.2461
      8 O          62.7846   91.0864   11.9182 O.2     1  UNL1       -0.2701
      9 N          65.1360   91.2991   13.0025 N.am    1  UNL1       -0.2969
     10 H          65.8846   90.8982   13.5005 H       1  UNL1        0.1501
     11 C          65.2061   92.7334   12.5690 C.3     1  UNL1        0.1167
     12 C          66.1908   93.1519   11.5177 C.ar    1  UNL1        0.0005
     13 C          66.1670   94.5533   10.9832 C.ar    1  UNL1        0.0181
     14 C          67.1516   94.9718    9.9319 C.ar    1  UNL1        0.0986
     15 N          68.1600   93.9890    9.4150 N.ar    1  UNL1       -0.2423
     16 C          68.1838   92.5877    9.9495 C.ar    1  UNL1        0.0986
     17 C          67.1992   92.1691   11.0008 C.ar    1  UNL1        0.0181
     18 O          63.6446   84.7384   14.4106 O.3     1  UNL1       -0.4535
     19 C          63.0165   80.3953   10.3188 C.3     1  UNL1        0.0310
     20 C          63.1735   81.4811   11.3418 C.ar    1  UNL1       -0.0217
     21 C          62.2828   81.5093   12.5483 C.ar    1  UNL1       -0.0011
     22 C          62.4398   82.5950   13.5712 C.ar    1  UNL1        0.0372
     23 C          63.4876   83.6526   13.3877 C.ar    1  UNL1        0.1453
     24 C          64.3783   83.6244   12.1812 C.ar    1  UNL1        0.0372
     25 C          64.2213   82.5386   11.1582 C.ar    1  UNL1       -0.0011
@<TRIPOS>BOND
     1    19    20    1
     2    20    21   ar
     3    21    22   ar
     4    22    23   ar
     5    23    18    1
     6    18     1    1
     7     1     2   ar
     8     2     3   ar
     9     3     4   ar
    10     4     7    1
    11     7     8    2
    12     7     9   am
    13     9    11    1
    14    11    12    1
    15    12    13   ar
    16    13    14   ar
    17    14    15   ar
    18    15    16   ar
    19    16    17   ar
    20     4     5   ar
    21     5     6   ar
    22    23    24   ar
    23    24    25   ar
    24    25    20   ar
    25     6     1   ar
    26    17    12   ar
    27     9    10    1
@<TRIPOS>MOLECULE
*****
 25 27 0 0 0
SMALL
GASTEIGER

@<TRIPOS>ATOM
      1 C          64.0634   84.6040   14.0400 C.ar    1  UNL1        0.1453
      2 C          64.7186   85.5044   15.0451 C.ar    1  UNL1        0.0376
      3 C          64.6155   86.9935   14.8976 C.ar    1  UNL1        0.0076
      4 C          63.8573   87.5824   13.7450 C.ar    1  UNL1        0.0536
      5 C          63.2022   86.6821   12.7399 C.ar    1  UNL1        0.0076
      6 C          63.3052   85.1929   12.8874 C.ar    1  UNL1        0.0376
      7 C          63.7543   89.0716   13.5976 C.2     1  UNL1        0.2461
      8 O          63.9097   89.9567   14.7986 O.2     1  UNL1       -0.2701
      9 N          63.4959   89.6757   12.2491 N.am    1  UNL1       -0.2969
     10 H          63.3939   89.0947   11.4609 H       1  UNL1        0.1501
     11 C          63.3929   91.1648   12.1017 C.3     1  UNL1        0.1167
     12 C          64.6337   91.9883   11.9214 C.ar    1  UNL1        0.0005
     13 C          65.4776   92.3430   13.1097 C.ar    1  UNL1        0.0181
     14 C          66.7183   93.1664   12.9294 C.ar    1  UNL1        0.0986
     15 N          67.1151   93.6351   11.5609 N.ar    1  UNL1       -0.2423
     16 C          66.2712   93.2804   10.3727 C.ar    1  UNL1        0.0986
     17 C          65.0304   92.4570   10.5529 C.ar    1  UNL1        0.0181
     18 O          64.1665   83.1149   14.1875 O.3     1  UNL1       -0.4535
     19 C          62.6757   79.5363    9.6080 C.3     1  UNL1        0.0310
     20 C          63.0484   80.4309   10.7529 C.ar    1  UNL1       -0.0217
     21 C          62.6362   80.0725   12.1498 C.ar    1  UNL1       -0.0011
     22 C          63.0089   80.9671   13.2947 C.ar    1  UNL1        0.0372
     23 C          63.7938   82.2202   13.0426 C.ar    1  UNL1        0.1453
     24 C          64.2060   82.5787   11.6456 C.ar    1  UNL1        0.0372
     25 C          63.8333   81.6840   10.5008 C.ar    1  UNL1       -0.0011
@<TRIPOS>BOND
     1    19    20    1
     2    20    21   ar
     3    21    22   ar
     4    22    23   ar
     5    23    18    1
     6    18     1    1
     7     1     2   ar
     8     2     3   ar
     9     3     4   ar
    10     4     7    1
    11     7     8    2
    12     7     9   am
    13     9    11    1
    14    11    12    1
    15    12    13   ar
    16    13    14   ar
    17    14    15   ar
    18    15    16   ar
    19    16    17   ar
    20     4     5   ar
    21     5     6   ar
    22    23    24   ar
    23    24    25   ar
    24    25    20   ar
    25     6     1   ar
    26    17    12   ar
    27     9    10    1
@<TRIPOS>MOLECULE
*****
 25 27 0 0 0
SMALL
GASTEIGER

@<TRIPOS>ATOM
      1 C          61.4274   87.8718   11.2995 C.ar    1  UNL1        0.1453
      2 C          62.6750   87.4907   12.0400 C.ar    1  UNL1        0.0376
      3 C          63.4993   88.5471   12.7141 C.ar    1  UNL1        0.0076
      4 C          63.0761   89.9846   12.6477 C.ar    1  UNL1        0.0536
      5 C          61.8285   90.3657   11.9073 C.ar    1  UNL1        0.0076
      6 C          61.0041   89.3093   11.2331 C.ar    1  UNL1        0.0376
      7 C          63.9004   91.0411   13.3219 C.2     1  UNL1        0.2461
      8 O          64.2796   92.2860   12.5760 O.2     1  UNL1       -0.2701
      9 N          64.3455   90.8526   14.7418 N.am    1  UNL1       -0.2969
     10 H          64.0967   90.0355   15.2314 H       1  UNL1        0.1501
     11 C          65.1699   91.9090   15.4159 C.3     1  UNL1        0.1167
     12 C          66.6065   92.0998   15.0290 C.ar    1  UNL1        0.0005
     13 C          67.0809   91.6719   13.6718 C.ar    1  UNL1        0.0181
     14 C          68.5175   91.8626   13.2849 C.ar    1  UNL1        0.0986
     15 N          69.4797   92.4813   14.2551 N.ar    1  UNL1       -0.2423
     16 C          69.0053   92.9093   15.6122 C.ar    1  UNL1        0.0986
     17 C          67.5688   92.7185   15.9992 C.ar    1  UNL1        0.0181
     18 O          60.6031   86.8154   10.6254 O.3     1  UNL1       -0.4535
     19 C          62.5201   84.3196    5.5170 C.3     1  UNL1        0.0310
     20 C          62.0409   84.9435    6.7941 C.ar    1  UNL1       -0.0217
     21 C          60.6385   85.4665    6.8932 C.ar    1  UNL1       -0.0011
     22 C          60.1593   86.0904    8.1703 C.ar    1  UNL1        0.0372
     23 C          61.0823   86.1914    9.3483 C.ar    1  UNL1        0.1453
     24 C          62.4847   85.6684    9.2491 C.ar    1  UNL1        0.0372
     25 C          62.9639   85.0445    7.9720 C.ar    1  UNL1       -0.0011
@<TRIPOS>BOND
     1    19    20    1
     2    20    21   ar
     3    21    22   ar
     4    22    23   ar
     5    23    18    1
     6    18     1    1
     7     1     2   ar
     8     2     3   ar
     9     3     4   ar
    10     4     7    1
    11     7     8    2
    12     7     9   am
    13     9    11    1
    14    11    12    1
    15    12    13   ar
    16    13    14   ar
    17    14    15   ar
    18    15    16   ar
    19    16    17   ar
    20     4     5   ar
    21     5     6   ar
    22    23    24   ar
    23    24    25   ar
    24    25    20   ar
    25     6     1   ar
    26    17    12   ar
    27     9    10    1
@<TRIPOS>MOLECULE
*****
 25 27 0 0 0
SMALL
GASTEIGER

@<TRIPOS>ATOM
      1 C          62.0847   86.8806   11.1304 C.ar    1  UNL1        0.1453
      2 C          61.2823   85.9589   10.2605 C.ar    1  UNL1        0.0376
      3 C          60.4582   86.5155    9.1376 C.ar    1  UNL1        0.0076
      4 C          60.4365   87.9938    8.8845 C.ar    1  UNL1        0.0536
      5 C          61.2388   88.9155    9.7543 C.ar    1  UNL1        0.0076
      6 C          62.0630   88.3589   10.8773 C.ar    1  UNL1        0.0376
      7 C          59.6123   88.5504    7.7615 C.2     1  UNL1        0.2461
      8 O          58.3211   87.8893    7.3796 O.2     1  UNL1       -0.2701
      9 N          60.0794   89.7680    7.0204 N.am    1  UNL1       -0.2969
     10 H          60.9268   90.2019    7.2710 H       1  UNL1        0.1501
     11 C          59.2552   90.3246    5.8975 C.3     1  UNL1        0.1167
     12 C          59.9049   91.1547    4.8303 C.ar    1  UNL1        0.0005
     13 C          61.3581   90.9632    4.5117 C.ar    1  UNL1        0.0181
     14 C          62.0077   91.7933    3.4445 C.ar    1  UNL1        0.0986
     15 N          61.2042   92.8149    2.6960 N.ar    1  UNL1       -0.2423
     16 C          59.7510   93.0065    3.0145 C.ar    1  UNL1        0.0986
     17 C          59.1013   92.1764    4.0817 C.ar    1  UNL1        0.0181
     18 O          62.9088   86.3240   12.2533 O.3     1  UNL1       -0.4535
     19 C          62.6566   80.4698   13.5439 C.3     1  UNL1        0.0310
     20 C          62.7197   81.9334   13.2213 C.ar    1  UNL1       -0.0217
     21 C          63.0796   82.3811   11.8357 C.ar    1  UNL1       -0.0011
     22 C          63.1427   83.8446   11.5130 C.ar    1  UNL1        0.0372
     23 C          62.8458   84.8604   12.5760 C.ar    1  UNL1        0.1453
     24 C          62.4858   84.4127   13.9616 C.ar    1  UNL1        0.0372
     25 C          62.4228   82.9492   14.2842 C.ar    1  UNL1       -0.0011
@<TRIPOS>BOND
     1    19    20    1
     2    20    21   ar
     3    21    22   ar
     4    22    23   ar
     5    23    18    1
     6    18     1    1
     7     1     2   ar
     8     2     3   ar
     9     3     4   ar
    10     4     7    1
    11     7     8    2
    12     7     9   am
    13     9    11    1
    14    11    12    1
    15    12    13   ar
    16    13    14   ar
    17    14    15   ar
    18    15    16   ar
    19    16    17   ar
    20     4     5   ar
    21     5     6   ar
    22    23    24   ar
    23    24    25   ar
    24    25    20   ar
    25     6     1   ar
    26    17    12   ar
    27     9    10    1
