@<TRIPOS>MOLECULE
*****
 25 27 0 0 0
SMALL
GASTEIGER

@<TRIPOS>ATOM
      1 N          61.6286   89.9113   12.6877 N.pl3   1  UNL1       -0.2150
      2 H          60.8305   90.2022   13.1854 H       1  UNL1        0.1737
      3 C          62.9837   90.4220   13.0786 C.ar    1  UNL1        0.0648
      4 C          63.7727   91.2646   12.1208 C.ar    1  UNL1        0.0159
      5 C          65.1278   91.7753   12.5118 C.ar    1  UNL1        0.0028
      6 C          65.6939   91.4433   13.8606 C.ar    1  UNL1        0.0172
      7 C          64.9049   90.6007   14.8185 C.ar    1  UNL1        0.0028
      8 C          63.5499   90.0901   14.4275 C.ar    1  UNL1        0.0159
      9 C          67.0491   91.9540   14.2516 C.ar    1  UNL1        0.0754
     10 C          67.3805   92.7017   15.5090 C.ar    1  UNL1        0.0409
     11 C          68.8469   93.0165   15.4884 C.ar    1  UNL1        0.1214
     12 N          69.4219   92.4633   14.2181 N.ar    1  UNL1       -0.1711
     13 N          68.3107   91.8067   13.4538 N.ar    1  UNL1       -0.2757
     14 H          68.3948   91.3578   12.5816 H       1  UNL1        0.1889
     15 O          60.4224   89.8286   10.9447 O.2     1  UNL1       -0.1499
     16 S          61.4894   88.9575   11.5384 S.O2    1  UNL1        0.0736
     17 O          62.5564   88.0864   12.1322 O.2     1  UNL1       -0.1499
     18 C          61.3502   88.0036   10.3891 C.ar    1  UNL1        0.1268
     19 C          62.3989   86.9578   10.1513 C.ar    1  UNL1        0.0316
     20 C          62.2598   86.0040    9.0021 C.ar    1  UNL1        0.0599
     21 CL         63.3085   84.9582    8.7643 Cl      1  UNL1       -0.0822
     22 C          61.0721   86.0959    8.0907 C.ar    1  UNL1        0.0229
     23 C          60.0234   87.1417    8.3285 C.ar    1  UNL1        0.0599
     24 CL         58.8355   87.2336    7.4171 Cl      1  UNL1       -0.0822
     25 C          60.1625   88.0956    9.4777 C.ar    1  UNL1        0.0316
@<TRIPOS>BOND
     1    15    16    2
     2    16    17    2
     3    16     1    1
     4     1     3    1
     5     3     4   ar
     6     4     5   ar
     7     5     6   ar
     8     6     9    1
     9     9    10   ar
    10    10    11   ar
    11    11    12   ar
    12    12    13   ar
    13     6     7   ar
    14     7     8   ar
    15    16    18    1
    16    18    19   ar
    17    19    20   ar
    18    20    21    1
    19    20    22   ar
    20    22    23   ar
    21    23    24    1
    22    23    25   ar
    23     8     3   ar
    24    25    18   ar
    25    13     9   ar
    26     1     2    1
    27    13    14    1
@<TRIPOS>MOLECULE
*****
 25 27 0 0 0
SMALL
GASTEIGER

@<TRIPOS>ATOM
      1 N          61.6339   89.8919   12.6788 N.pl3   1  UNL1       -0.2150
      2 H          60.8368   90.1808   13.1793 H       1  UNL1        0.1737
      3 C          62.9892   90.4054   13.0656 C.ar    1  UNL1        0.0648
      4 C          63.5628   90.0696   14.4103 C.ar    1  UNL1        0.0159
      5 C          64.9180   90.5830   14.7970 C.ar    1  UNL1        0.0028
      6 C          65.6997   91.4322   13.8390 C.ar    1  UNL1        0.0172
      7 C          65.1262   91.7680   12.4943 C.ar    1  UNL1        0.0028
      8 C          63.7709   91.2546   12.1076 C.ar    1  UNL1        0.0159
      9 C          67.0551   91.9457   14.2257 C.ar    1  UNL1        0.0754
     10 C          67.3811   92.7291   15.4627 C.ar    1  UNL1        0.0409
     11 C          68.8498   93.0335   15.4449 C.ar    1  UNL1        0.1214
     12 N          69.4315   92.4381   14.1970 N.ar    1  UNL1       -0.1711
     13 N          68.3223   91.7658   13.4435 N.ar    1  UNL1       -0.2757
     14 H          68.4105   91.2901   12.5861 H       1  UNL1        0.1889
     15 O          60.4196   89.8056   10.9416 O.2     1  UNL1       -0.1499
     16 S          61.4930   88.9384   11.5295 S.O2    1  UNL1        0.0736
     17 O          62.5664   88.0712   12.1174 O.2     1  UNL1       -0.1499
     18 C          61.3521   87.9848   10.3802 C.ar    1  UNL1        0.1268
     19 C          60.1550   88.0668    9.4801 C.ar    1  UNL1        0.0316
     20 C          60.0141   87.1132    8.3308 C.ar    1  UNL1        0.0599
     21 CL         58.8169   87.1952    7.4307 Cl      1  UNL1       -0.0822
     22 C          61.0703   86.0778    8.0816 C.ar    1  UNL1        0.0229
     23 C          62.2675   85.9959    8.9817 C.ar    1  UNL1        0.0599
     24 CL         63.3238   84.9604    8.7324 Cl      1  UNL1       -0.0822
     25 C          62.4084   86.9494   10.1309 C.ar    1  UNL1        0.0316
@<TRIPOS>BOND
     1    15    16    2
     2    16    17    2
     3    16     1    1
     4     1     3    1
     5     3     4   ar
     6     4     5   ar
     7     5     6   ar
     8     6     9    1
     9     9    10   ar
    10    10    11   ar
    11    11    12   ar
    12    12    13   ar
    13     6     7   ar
    14     7     8   ar
    15    16    18    1
    16    18    19   ar
    17    19    20   ar
    18    20    21    1
    19    20    22   ar
    20    22    23   ar
    21    23    24    1
    22    23    25   ar
    23     8     3   ar
    24    25    18   ar
    25    13     9   ar
    26     1     2    1
    27    13    14    1
@<TRIPOS>MOLECULE
*****
 25 27 0 0 0
SMALL
GASTEIGER

@<TRIPOS>ATOM
      1 N          63.5596   91.6461   12.6076 N.pl3   1  UNL1       -0.2150
      2 H          62.7681   92.1588   12.8904 H       1  UNL1        0.1737
      3 C          63.6761   90.1923   12.9584 C.ar    1  UNL1        0.0648
      4 C          63.1054   89.1515   12.0415 C.ar    1  UNL1        0.0159
      5 C          63.2219   87.6978   12.3923 C.ar    1  UNL1        0.0028
      6 C          63.9093   87.2849   13.6600 C.ar    1  UNL1        0.0172
      7 C          64.4800   88.3258   14.5769 C.ar    1  UNL1        0.0028
      8 C          64.3635   89.7795   14.2261 C.ar    1  UNL1        0.0159
      9 C          64.0258   85.8311   14.0108 C.ar    1  UNL1        0.0754
     10 C          63.6894   84.6777   13.1128 C.ar    1  UNL1        0.0409
     11 C          63.9549   83.4093   13.8681 C.ar    1  UNL1        0.1214
     12 N          64.4554   83.7788   15.2331 N.ar    1  UNL1       -0.1711
     13 N          64.4992   85.2756   15.3212 N.ar    1  UNL1       -0.2757
     14 H          64.7880   85.8010   16.1021 H       1  UNL1        0.1889
     15 O          63.9654   91.9382   10.5461 O.2     1  UNL1       -0.1499
     16 S          64.6489   92.3187   11.8259 S.O2    1  UNL1        0.0736
     17 O          65.3323   92.6992   13.1058 O.2     1  UNL1       -0.1499
     18 C          65.7382   92.9913   11.0442 C.ar    1  UNL1        0.1268
     19 C          65.8066   94.4887   10.9887 C.ar    1  UNL1        0.0316
     20 C          66.8958   95.1614   10.2071 C.ar    1  UNL1        0.0599
     21 CL         66.9641   96.6588   10.1516 Cl      1  UNL1       -0.0822
     22 C          67.9168   94.3366    9.4810 C.ar    1  UNL1        0.0229
     23 C          67.8485   92.8392    9.5365 C.ar    1  UNL1        0.0599
     24 CL         68.8696   92.0144    8.8104 Cl      1  UNL1       -0.0822
     25 C          66.7592   92.1665   10.3182 C.ar    1  UNL1        0.0316
@<TRIPOS>BOND
     1    15    16    2
     2    16    17    2
     3    16     1    1
     4     1     3    1
     5     3     4   ar
     6     4     5   ar
     7     5     6   ar
     8     6     9    1
     9     9    10   ar
    10    10    11   ar
    11    11    12   ar
    12    12    13   ar
    13     6     7   ar
    14     7     8   ar
    15    16    18    1
    16    18    19   ar
    17    19    20   ar
    18    20    21    1
    19    20    22   ar
    20    22    23   ar
    21    23    24    1
    22    23    25   ar
    23     8     3   ar
    24    25    18   ar
    25    13     9   ar
    26     1     2    1
    27    13    14    1
@<TRIPOS>MOLECULE
*****
 25 27 0 0 0
SMALL
GASTEIGER

@<TRIPOS>ATOM
      1 N          63.7944   91.7179   13.0220 N.pl3   1  UNL1       -0.2150
      2 H          63.0957   92.2628   13.4512 H       1  UNL1        0.1737
      3 C          63.8423   90.2375   13.2589 C.ar    1  UNL1        0.0648
      4 C          63.2240   89.2987   12.2658 C.ar    1  UNL1        0.0159
      5 C          63.2718   87.8183   12.5027 C.ar    1  UNL1        0.0028
      6 C          63.9380   87.2767   13.7327 C.ar    1  UNL1        0.0172
      7 C          64.5563   88.2155   14.7258 C.ar    1  UNL1        0.0028
      8 C          64.5084   89.6959   14.4889 C.ar    1  UNL1        0.0159
      9 C          63.9859   85.7963   13.9695 C.ar    1  UNL1        0.0754
     10 C          63.5032   84.7361   13.0244 C.ar    1  UNL1        0.0409
     11 C          63.7438   83.4007   13.6638 C.ar    1  UNL1        0.1214
     12 N          64.3752   83.6356   15.0040 N.ar    1  UNL1       -0.1711
     13 N          64.5248   85.1161   15.1930 N.ar    1  UNL1       -0.2757
     14 H          64.9092   85.5629   15.9815 H       1  UNL1        0.1889
     15 O          65.5723   92.8311   13.3380 O.2     1  UNL1       -0.1499
     16 S          64.8111   92.3682   12.1313 S.O2    1  UNL1        0.0736
     17 O          64.0499   91.9053   10.9246 O.2     1  UNL1       -0.1499
     18 C          65.8277   93.0185   11.2404 C.ar    1  UNL1        0.1268
     19 C          66.8036   92.1746   10.4752 C.ar    1  UNL1        0.0316
     20 C          67.8203   92.8248    9.5844 C.ar    1  UNL1        0.0599
     21 CL         68.7961   91.9809    8.8193 Cl      1  UNL1       -0.0822
     22 C          67.8610   94.3189    9.4588 C.ar    1  UNL1        0.0229
     23 C          66.8852   95.1629   10.2239 C.ar    1  UNL1        0.0599
     24 CL         66.9260   96.6571   10.0983 Cl      1  UNL1       -0.0822
     25 C          65.8685   94.5126   11.1148 C.ar    1  UNL1        0.0316
@<TRIPOS>BOND
     1    15    16    2
     2    16    17    2
     3    16     1    1
     4     1     3    1
     5     3     4   ar
     6     4     5   ar
     7     5     6   ar
     8     6     9    1
     9     9    10   ar
    10    10    11   ar
    11    11    12   ar
    12    12    13   ar
    13     6     7   ar
    14     7     8   ar
    15    16    18    1
    16    18    19   ar
    17    19    20   ar
    18    20    21    1
    19    20    22   ar
    20    22    23   ar
    21    23    24    1
    22    23    25   ar
    23     8     3   ar
    24    25    18   ar
    25    13     9   ar
    26     1     2    1
    27    13    14    1
@<TRIPOS>MOLECULE
*****
 25 27 0 0 0
SMALL
GASTEIGER

@<TRIPOS>ATOM
      1 N          62.1774   89.3681   12.1656 N.pl3   1  UNL1       -0.2150
      2 H          61.2887   89.7894   12.2106 H       1  UNL1        0.1737
      3 C          63.3726   90.0762   12.7315 C.ar    1  UNL1        0.0648
      4 C          63.9310   89.6606   14.0602 C.ar    1  UNL1        0.0159
      5 C          65.1262   90.3687   14.6260 C.ar    1  UNL1        0.0028
      6 C          65.7629   91.4924   13.8631 C.ar    1  UNL1        0.0172
      7 C          65.2044   91.9080   12.5345 C.ar    1  UNL1        0.0028
      8 C          64.0093   91.1999   11.9687 C.ar    1  UNL1        0.0159
      9 C          66.9581   92.2004   14.4290 C.ar    1  UNL1        0.0754
     10 C          66.9582   93.1222   15.6124 C.ar    1  UNL1        0.0409
     11 C          68.3631   93.6025   15.8257 C.ar    1  UNL1        0.1214
     12 N          69.2313   92.9776   14.7740 N.ar    1  UNL1       -0.1711
     13 N          68.3629   92.1111   13.9109 N.ar    1  UNL1       -0.2757
     14 H          68.6624   91.5775   13.1397 H       1  UNL1        0.1889
     15 O          63.1656   87.5679   12.6971 O.2     1  UNL1       -0.1499
     16 S          62.3362   88.0182   11.5313 S.O2    1  UNL1        0.0736
     17 O          61.5068   88.4684   10.3654 O.2     1  UNL1       -0.1499
     18 C          62.4950   86.6682   10.8968 C.ar    1  UNL1        0.1268
     19 C          62.5203   86.5401    9.4025 C.ar    1  UNL1        0.0316
     20 C          62.6790   85.1902    8.7681 C.ar    1  UNL1        0.0599
     21 CL         62.7043   85.0620    7.2738 Cl      1  UNL1       -0.0822
     22 C          62.8125   83.9684    9.6280 C.ar    1  UNL1        0.0229
     23 C          62.7873   84.0965   11.1223 C.ar    1  UNL1        0.0599
     24 CL         62.9208   82.8747   11.9822 Cl      1  UNL1       -0.0822
     25 C          62.6285   85.4464   11.7567 C.ar    1  UNL1        0.0316
@<TRIPOS>BOND
     1    15    16    2
     2    16    17    2
     3    16     1    1
     4     1     3    1
     5     3     4   ar
     6     4     5   ar
     7     5     6   ar
     8     6     9    1
     9     9    10   ar
    10    10    11   ar
    11    11    12   ar
    12    12    13   ar
    13     6     7   ar
    14     7     8   ar
    15    16    18    1
    16    18    19   ar
    17    19    20   ar
    18    20    21    1
    19    20    22   ar
    20    22    23   ar
    21    23    24    1
    22    23    25   ar
    23     8     3   ar
    24    25    18   ar
    25    13     9   ar
    26     1     2    1
    27    13    14    1
@<TRIPOS>MOLECULE
*****
 25 27 0 0 0
SMALL
GASTEIGER

@<TRIPOS>ATOM
      1 N          62.1516   89.1868   12.3150 N.pl3   1  UNL1       -0.2150
      2 H          61.4323   89.3326   12.9711 H       1  UNL1        0.1737
      3 C          63.0529   90.3209   11.9256 C.ar    1  UNL1        0.0648
      4 C          63.9787   90.9252   12.9394 C.ar    1  UNL1        0.0159
      5 C          64.8799   92.0592   12.5500 C.ar    1  UNL1        0.0028
      6 C          64.8554   92.5889   11.1468 C.ar    1  UNL1        0.0172
      7 C          63.9297   91.9846   10.1331 C.ar    1  UNL1        0.0028
      8 C          63.0284   90.8506   10.5225 C.ar    1  UNL1        0.0159
      9 C          65.7568   93.7230   10.7575 C.ar    1  UNL1        0.0754
     10 C          66.8329   93.6755    9.7135 C.ar    1  UNL1        0.0409
     11 C          67.4814   95.0268    9.6545 C.ar    1  UNL1        0.1214
     12 N          66.8061   95.9094   10.6621 N.ar    1  UNL1       -0.1711
     13 N          65.7403   95.1036   11.3437 N.ar    1  UNL1       -0.2757
     14 H          65.1359   95.4245   12.0515 H       1  UNL1        0.1889
     15 O          63.3927   87.5180   12.7328 O.2     1  UNL1       -0.1499
     16 S          62.3463   87.8305   11.7046 S.O2    1  UNL1        0.0736
     17 O          61.2998   88.1430   10.6764 O.2     1  UNL1       -0.1499
     18 C          62.5409   86.4741   11.0942 C.ar    1  UNL1        0.1268
     19 C          62.5884   86.3228    9.6026 C.ar    1  UNL1        0.0316
     20 C          62.7830   84.9666    8.9921 C.ar    1  UNL1        0.0599
     21 CL         62.8304   84.8152    7.5006 Cl      1  UNL1       -0.0822
     22 C          62.9302   83.7617    9.8733 C.ar    1  UNL1        0.0229
     23 C          62.8828   83.9130   11.3649 C.ar    1  UNL1        0.0599
     24 CL         63.0300   82.7080   12.2461 Cl      1  UNL1       -0.0822
     25 C          62.6881   85.2692   11.9753 C.ar    1  UNL1        0.0316
@<TRIPOS>BOND
     1    15    16    2
     2    16    17    2
     3    16     1    1
     4     1     3    1
     5     3     4   ar
     6     4     5   ar
     7     5     6   ar
     8     6     9    1
     9     9    10   ar
    10    10    11   ar
    11    11    12   ar
    12    12    13   ar
    13     6     7   ar
    14     7     8   ar
    15    16    18    1
    16    18    19   ar
    17    19    20   ar
    18    20    21    1
    19    20    22   ar
    20    22    23   ar
    21    23    24    1
    22    23    25   ar
    23     8     3   ar
    24    25    18   ar
    25    13     9   ar
    26     1     2    1
    27    13    14    1
@<TRIPOS>MOLECULE
*****
 25 27 0 0 0
SMALL
GASTEIGER

@<TRIPOS>ATOM
      1 N          62.2228   89.4233   12.3091 N.pl3   1  UNL1       -0.2150
      2 H          61.4993   89.6143   12.9489 H       1  UNL1        0.1737
      3 C          63.1732   90.5113   11.9051 C.ar    1  UNL1        0.0648
      4 C          64.1141   91.0985   12.9150 C.ar    1  UNL1        0.0159
      5 C          65.0644   92.1864   12.5110 C.ar    1  UNL1        0.0028
      6 C          65.0739   92.6871   11.0970 C.ar    1  UNL1        0.0172
      7 C          64.1330   92.0999   10.0871 C.ar    1  UNL1        0.0028
      8 C          63.1827   91.0120   10.4912 C.ar    1  UNL1        0.0159
      9 C          66.0243   93.7751   10.6930 C.ar    1  UNL1        0.0754
     10 C          65.7726   95.2500   10.7994 C.ar    1  UNL1        0.0409
     11 C          66.9859   95.9657   10.2839 C.ar    1  UNL1        0.1214
     12 N          67.9874   94.9330    9.8588 N.ar    1  UNL1       -0.1711
     13 N          67.3931   93.5792   10.1117 N.ar    1  UNL1       -0.2757
     14 H          67.8255   92.7139    9.9284 H       1  UNL1        0.1889
     15 O          61.2775   88.3302   10.7563 O.2     1  UNL1       -0.1499
     16 S          62.3748   88.0446   11.7383 S.O2    1  UNL1        0.0736
     17 O          63.4720   87.7590   12.7203 O.2     1  UNL1       -0.1499
     18 C          62.5268   86.6657   11.1675 C.ar    1  UNL1        0.1268
     19 C          62.6157   85.4807   12.0829 C.ar    1  UNL1        0.0316
     20 C          62.7677   84.1019   11.5122 C.ar    1  UNL1        0.0599
     21 CL         62.8566   82.9169   12.4275 Cl      1  UNL1       -0.0822
     22 C          62.8308   83.9081   10.0261 C.ar    1  UNL1        0.0229
     23 C          62.7419   85.0931    9.1108 C.ar    1  UNL1        0.0599
     24 CL         62.8050   84.8993    7.6246 Cl      1  UNL1       -0.0822
     25 C          62.5899   86.4719    9.6815 C.ar    1  UNL1        0.0316
@<TRIPOS>BOND
     1    15    16    2
     2    16    17    2
     3    16     1    1
     4     1     3    1
     5     3     4   ar
     6     4     5   ar
     7     5     6   ar
     8     6     9    1
     9     9    10   ar
    10    10    11   ar
    11    11    12   ar
    12    12    13   ar
    13     6     7   ar
    14     7     8   ar
    15    16    18    1
    16    18    19   ar
    17    19    20   ar
    18    20    21    1
    19    20    22   ar
    20    22    23   ar
    21    23    24    1
    22    23    25   ar
    23     8     3   ar
    24    25    18   ar
    25    13     9   ar
    26     1     2    1
    27    13    14    1
@<TRIPOS>MOLECULE
*****
 25 27 0 0 0
SMALL
GASTEIGER

@<TRIPOS>ATOM
      1 N          62.0094   89.4824   12.0844 N.pl3   1  UNL1       -0.2150
      2 H          61.1267   89.9150   12.0302 H       1  UNL1        0.1737
      3 C          63.1488   90.1851   12.7613 C.ar    1  UNL1        0.0648
      4 C          64.0090   91.1383   11.9858 C.ar    1  UNL1        0.0159
      5 C          65.1483   91.8409   12.6627 C.ar    1  UNL1        0.0028
      6 C          65.4274   91.5904   14.1150 C.ar    1  UNL1        0.0172
      7 C          64.5671   90.6373   14.8905 C.ar    1  UNL1        0.0028
      8 C          63.4278   89.9346   14.2137 C.ar    1  UNL1        0.0159
      9 C          66.5667   92.2932   14.7919 C.ar    1  UNL1        0.0754
     10 C          67.7963   91.6419   15.3523 C.ar    1  UNL1        0.0409
     11 C          68.6661   92.7166   15.9340 C.ar    1  UNL1        0.1214
     12 N          67.9740   94.0323   15.7330 N.ar    1  UNL1       -0.1711
     13 N          66.6766   93.7705   15.0272 N.ar    1  UNL1       -0.2757
     14 H          66.0136   94.4492   14.7645 H       1  UNL1        0.1889
     15 O          61.2473   88.4531   10.3934 O.2     1  UNL1       -0.1499
     16 S          62.2149   88.1206   11.4902 S.O2    1  UNL1        0.0736
     17 O          63.1826   87.7880   12.5870 O.2     1  UNL1       -0.1499
     18 C          62.4205   86.7587   10.8959 C.ar    1  UNL1        0.1268
     19 C          62.5615   85.5633   11.7911 C.ar    1  UNL1        0.0316
     20 C          62.7670   84.2015   11.1970 C.ar    1  UNL1        0.0599
     21 CL         62.9080   83.0061   12.0921 Cl      1  UNL1       -0.0822
     22 C          62.8316   84.0350    9.7077 C.ar    1  UNL1        0.0229
     23 C          62.6906   85.2303    8.8125 C.ar    1  UNL1        0.0599
     24 CL         62.7552   85.0637    7.3231 Cl      1  UNL1       -0.0822
     25 C          62.4851   86.5922    9.4067 C.ar    1  UNL1        0.0316
@<TRIPOS>BOND
     1    15    16    2
     2    16    17    2
     3    16     1    1
     4     1     3    1
     5     3     4   ar
     6     4     5   ar
     7     5     6   ar
     8     6     9    1
     9     9    10   ar
    10    10    11   ar
    11    11    12   ar
    12    12    13   ar
    13     6     7   ar
    14     7     8   ar
    15    16    18    1
    16    18    19   ar
    17    19    20   ar
    18    20    21    1
    19    20    22   ar
    20    22    23   ar
    21    23    24    1
    22    23    25   ar
    23     8     3   ar
    24    25    18   ar
    25    13     9   ar
    26     1     2    1
    27    13    14    1
@<TRIPOS>MOLECULE
*****
 25 27 0 0 0
SMALL
GASTEIGER

@<TRIPOS>ATOM
      1 N          61.5952   89.6427   12.3738 N.pl3   1  UNL1       -0.2150
      2 H          60.8074   89.7617   12.9521 H       1  UNL1        0.1737
      3 C          61.5509   88.6641   11.2378 C.ar    1  UNL1        0.0648
      4 C          60.6431   88.9115   10.0697 C.ar    1  UNL1        0.0159
      5 C          60.5988   87.9329    8.9338 C.ar    1  UNL1        0.0028
      6 C          61.4623   86.7068    8.9661 C.ar    1  UNL1        0.0172
      7 C          62.3701   86.4593   10.1342 C.ar    1  UNL1        0.0028
      8 C          62.4144   87.4379   11.2701 C.ar    1  UNL1        0.0159
      9 C          61.4179   85.7281    7.8301 C.ar    1  UNL1        0.0754
     10 C          62.6018   85.0642    7.1916 C.ar    1  UNL1        0.0409
     11 C          62.0976   84.1674    6.1001 C.ar    1  UNL1        0.1214
     12 N          60.6020   84.2769    6.0641 N.ar    1  UNL1       -0.1711
     13 N          60.1820   85.2415    7.1333 N.ar    1  UNL1       -0.2757
     14 H          59.2574   85.5084    7.3412 H       1  UNL1        0.1889
     15 O          62.7758   90.9862   11.2331 O.2     1  UNL1       -0.1499
     16 S          62.8399   90.4401   12.6286 S.O2    1  UNL1        0.0736
     17 O          62.9040   89.8940   14.0242 O.2     1  UNL1       -0.1499
     18 C          64.0846   91.2375   12.8835 C.ar    1  UNL1        0.1268
     19 C          64.7791   91.9276   11.7471 C.ar    1  UNL1        0.0316
     20 C          66.0238   92.7249   12.0020 C.ar    1  UNL1        0.0599
     21 CL         66.7182   93.4150   10.8655 Cl      1  UNL1       -0.0822
     22 C          66.5740   92.8321   13.3932 C.ar    1  UNL1        0.0229
     23 C          65.8795   92.1420   14.5297 C.ar    1  UNL1        0.0599
     24 CL         66.4298   92.2493   15.9210 Cl      1  UNL1       -0.0822
     25 C          64.6349   91.3447   14.2748 C.ar    1  UNL1        0.0316
@<TRIPOS>BOND
     1    15    16    2
     2    16    17    2
     3    16     1    1
     4     1     3    1
     5     3     4   ar
     6     4     5   ar
     7     5     6   ar
     8     6     9    1
     9     9    10   ar
    10    10    11   ar
    11    11    12   ar
    12    12    13   ar
    13     6     7   ar
    14     7     8   ar
    15    16    18    1
    16    18    19   ar
    17    19    20   ar
    18    20    21    1
    19    20    22   ar
    20    22    23   ar
    21    23    24    1
    22    23    25   ar
    23     8     3   ar
    24    25    18   ar
    25    13     9   ar
    26     1     2    1
    27    13    14    1
