@<TRIPOS>MOLECULE
*****
 34 36 0 0 0
SMALL
GASTEIGER

@<TRIPOS>ATOM
      1 C          63.5635   85.1370   13.5906 C.3     1  UNL1        0.1532
      2 N          63.2256   86.1318   15.9668 N.am    1  UNL1       -0.2750
      3 C          62.4704   86.1739   17.2621 C.3     1  UNL1        0.1149
      4 C          62.8083   85.1791   14.8860 C.2     1  UNL1        0.2439
      5 O          61.6358   84.2684   15.1005 O.2     1  UNL1       -0.2731
      6 C          64.3981   87.0424   15.7522 C.3     1  UNL1        0.1108
      7 C          64.2999   88.1732   14.7715 C.3     1  UNL1        0.0939
      8 C          63.5568   90.5957   14.1977 C.3     1  UNL1        0.0897
      9 N          63.6687   89.4702   15.1830 N.3     1  UNL1       -0.2688
     10 C          63.1492   89.6417   16.5797 C.3     1  UNL1        0.0897
     11 N          63.4022   86.2448   12.5921 N.am    1  UNL1       -0.2978
     12 C          62.3730   86.1322   11.5067 C.2     1  UNL1        0.2257
     13 O          61.5051   84.9119   11.4198 O.2     1  UNL1       -0.2748
     14 H          63.9719   87.0457   12.6492 H       1  UNL1        0.1498
     15 C          62.2117   87.2400   10.5083 C.3     1  UNL1        0.0884
     16 C          62.1195   88.6268    9.9444 C.3     1  UNL1        0.0135
     17 C          62.3544   88.4284   11.4124 C.3     1  UNL1        0.0135
     18 C          62.0129   86.4363    9.2574 C.ar    1  UNL1       -0.0040
     19 C          63.1582   85.6645    8.6721 C.ar    1  UNL1       -0.0021
     20 C          62.9594   84.8608    7.4211 C.ar    1  UNL1        0.0111
     21 C          61.6155   84.8291    6.7557 C.ar    1  UNL1        0.0585
     22 CL         61.4167   84.0255    5.5048 Cl      1  UNL1       -0.0822
     23 C          60.4703   85.6010    7.3411 C.ar    1  UNL1        0.0225
     24 C          60.6690   86.4046    8.5920 C.ar    1  UNL1        0.0550
     25 CL         59.5238   87.1765    9.1774 Cl      1  UNL1       -0.0825
     26 C          64.4799   83.9873   13.2937 C.3     1  UNL1        0.0562
     27 C          64.0390   82.8981   12.3612 C.ar    1  UNL1       -0.0094
     28 C          64.3332   83.0022   10.8940 C.ar    1  UNL1       -0.0025
     29 C          63.8923   81.9131    9.9617 C.ar    1  UNL1        0.0111
     30 C          63.1572   80.7199   10.4964 C.ar    1  UNL1        0.0585
     31 CL         62.7162   79.6308    9.5639 Cl      1  UNL1       -0.0822
     32 C          62.8629   80.6159   11.9636 C.ar    1  UNL1        0.0225
     33 C          63.3038   81.7050   12.8959 C.ar    1  UNL1        0.0546
     34 CL         63.0096   81.6010   14.3632 Cl      1  UNL1       -0.0825
@<TRIPOS>BOND
     1     8     9    1
     2     9    10    1
     3     9     7    1
     4     7     6    1
     5     6     2    1
     6     2     3    1
     7     2     4   am
     8     4     5    2
     9     4     1    1
    10     1    26    1
    11    26    27    1
    12    27    28   ar
    13    28    29   ar
    14    29    30   ar
    15    30    31    1
    16    30    32   ar
    17    32    33   ar
    18    33    34    1
    19     1    11    1
    20    11    12   am
    21    12    13    2
    22    12    15    1
    23    15    18    1
    24    18    19   ar
    25    19    20   ar
    26    20    21   ar
    27    21    22    1
    28    21    23   ar
    29    23    24   ar
    30    24    25    1
    31    15    16    1
    32    16    17    1
    33    33    27   ar
    34    17    15    1
    35    24    18   ar
    36    11    14    1
@<TRIPOS>MOLECULE
*****
 34 36 0 0 0
SMALL
GASTEIGER

@<TRIPOS>ATOM
      1 C          62.4058   87.8277   11.2310 C.3     1  UNL1        0.1532
      2 N          63.4080   89.9427   12.3591 N.am    1  UNL1       -0.2750
      3 C          63.6773   91.4182   12.3453 C.3     1  UNL1        0.1149
      4 C          62.6751   89.3033   11.2172 C.2     1  UNL1        0.2439
      5 O          62.2115   90.1395   10.0614 O.2     1  UNL1       -0.2731
      6 C          63.8717   89.1064   13.5149 C.3     1  UNL1        0.1108
      7 C          64.6200   89.7427   14.6485 C.3     1  UNL1        0.0939
      8 C          63.9875   91.5471   16.4075 C.3     1  UNL1        0.0897
      9 N          63.8923   90.1392   15.8988 N.3     1  UNL1       -0.2688
     10 C          63.0692   89.1278   16.6403 C.3     1  UNL1        0.0897
     11 N          63.3455   86.9005   11.9432 N.am    1  UNL1       -0.2978
     12 C          62.8131   85.6853   12.6431 C.2     1  UNL1        0.2257
     13 O          61.3411   85.3973   12.6308 O.2     1  UNL1       -0.2748
     14 H          64.3116   87.0895   11.9514 H       1  UNL1        0.1498
     15 C          63.7528   84.7580   13.3554 C.3     1  UNL1        0.0884
     16 C          64.7554   84.2613   14.3543 C.3     1  UNL1        0.0135
     17 C          64.2604   85.6753   14.4283 C.3     1  UNL1        0.0135
     18 C          63.5715   83.5188   12.5299 C.ar    1  UNL1       -0.0040
     19 C          64.2040   83.4224   11.1732 C.ar    1  UNL1       -0.0021
     20 C          64.0227   82.1831   10.3476 C.ar    1  UNL1        0.0111
     21 C          63.2091   81.0404   10.8788 C.ar    1  UNL1        0.0585
     22 CL         63.0279   79.8012   10.0533 Cl      1  UNL1       -0.0822
     23 C          62.5767   81.1369   12.2356 C.ar    1  UNL1        0.0225
     24 C          62.7579   82.3761   13.0611 C.ar    1  UNL1        0.0550
     25 CL         62.1255   82.4726   14.4178 Cl      1  UNL1       -0.0825
     26 C          61.1969   87.2794   10.5326 C.3     1  UNL1        0.0562
     27 C          61.3560   86.4843    9.2706 C.ar    1  UNL1       -0.0094
     28 C          62.6490   85.7791    8.9864 C.ar    1  UNL1       -0.0025
     29 C          62.8080   84.9841    7.7245 C.ar    1  UNL1        0.0111
     30 C          61.6740   84.8942    6.7467 C.ar    1  UNL1        0.0585
     31 CL         61.8331   84.0990    5.4847 Cl      1  UNL1       -0.0822
     32 C          60.3810   85.5993    7.0309 C.ar    1  UNL1        0.0225
     33 C          60.2220   86.3944    8.2929 C.ar    1  UNL1        0.0546
     34 CL         58.9289   87.0996    8.5771 Cl      1  UNL1       -0.0825
@<TRIPOS>BOND
     1     8     9    1
     2     9    10    1
     3     9     7    1
     4     7     6    1
     5     6     2    1
     6     2     3    1
     7     2     4   am
     8     4     5    2
     9     4     1    1
    10     1    26    1
    11    26    27    1
    12    27    28   ar
    13    28    29   ar
    14    29    30   ar
    15    30    31    1
    16    30    32   ar
    17    32    33   ar
    18    33    34    1
    19     1    11    1
    20    11    12   am
    21    12    13    2
    22    12    15    1
    23    15    18    1
    24    18    19   ar
    25    19    20   ar
    26    20    21   ar
    27    21    22    1
    28    21    23   ar
    29    23    24   ar
    30    24    25    1
    31    15    16    1
    32    16    17    1
    33    33    27   ar
    34    17    15    1
    35    24    18   ar
    36    11    14    1
@<TRIPOS>MOLECULE
*****
 34 36 0 0 0
SMALL
GASTEIGER

@<TRIPOS>ATOM
      1 C          63.7963   86.1086   13.7430 C.3     1  UNL1        0.1532
      2 N          63.5811   87.7100   15.7776 N.am    1  UNL1       -0.2750
      3 C          63.0914   87.9846   17.1685 C.3     1  UNL1        0.1149
      4 C          63.3066   86.3832   15.1340 C.2     1  UNL1        0.2439
      5 O          62.5424   85.3309   15.8815 O.2     1  UNL1       -0.2731
      6 C          64.3453   88.7623   15.0301 C.3     1  UNL1        0.1108
      7 C          63.7680   90.1375   14.8708 C.3     1  UNL1        0.0939
      8 C          65.5183   92.0127   15.2832 C.3     1  UNL1        0.0897
      9 N          64.6229   91.2541   14.3490 N.3     1  UNL1       -0.2688
     10 C          64.5825   91.6121   12.8928 C.3     1  UNL1        0.0897
     11 N          63.5244   87.0930   12.6443 N.am    1  UNL1       -0.2978
     12 C          62.4004   86.8503   11.6810 C.2     1  UNL1        0.2257
     13 O          61.5484   85.6233   11.8165 O.2     1  UNL1       -0.2748
     14 H          64.0837   87.8983   12.5554 H       1  UNL1        0.1498
     15 C          62.1286   87.8346   10.5823 C.3     1  UNL1        0.0884
     16 C          61.9199   89.1459    9.8844 C.3     1  UNL1        0.0135
     17 C          62.2158   89.1177   11.3546 C.3     1  UNL1        0.0135
     18 C          61.9471   86.8936    9.4285 C.ar    1  UNL1       -0.0040
     19 C          63.1035   86.0712    8.9424 C.ar    1  UNL1       -0.0021
     20 C          62.9219   85.1300    7.7885 C.ar    1  UNL1        0.0111
     21 C          61.5840   85.0114    7.1208 C.ar    1  UNL1        0.0585
     22 CL         61.4025   84.0703    5.9669 Cl      1  UNL1       -0.0822
     23 C          60.4276   85.8338    7.6069 C.ar    1  UNL1        0.0225
     24 C          60.6092   86.7749    8.7608 C.ar    1  UNL1        0.0550
     25 CL         59.4527   87.5974    9.2469 Cl      1  UNL1       -0.0825
     26 C          64.5577   84.8498   13.4507 C.3     1  UNL1        0.0562
     27 C          63.8344   83.5384   13.3650 C.ar    1  UNL1       -0.0094
     28 C          63.1358   82.9870   14.5724 C.ar    1  UNL1       -0.0025
     29 C          62.4126   81.6757   14.4867 C.ar    1  UNL1        0.0111
     30 C          62.3879   80.9159   13.1936 C.ar    1  UNL1        0.0585
     31 CL         61.6646   79.6045   13.1079 Cl      1  UNL1       -0.0822
     32 C          63.0865   81.4674   11.9862 C.ar    1  UNL1        0.0225
     33 C          63.8098   82.7787   12.0719 C.ar    1  UNL1        0.0546
     34 CL         64.5084   83.3302   10.8645 Cl      1  UNL1       -0.0825
@<TRIPOS>BOND
     1     8     9    1
     2     9    10    1
     3     9     7    1
     4     7     6    1
     5     6     2    1
     6     2     3    1
     7     2     4   am
     8     4     5    2
     9     4     1    1
    10     1    26    1
    11    26    27    1
    12    27    28   ar
    13    28    29   ar
    14    29    30   ar
    15    30    31    1
    16    30    32   ar
    17    32    33   ar
    18    33    34    1
    19     1    11    1
    20    11    12   am
    21    12    13    2
    22    12    15    1
    23    15    18    1
    24    18    19   ar
    25    19    20   ar
    26    20    21   ar
    27    21    22    1
    28    21    23   ar
    29    23    24   ar
    30    24    25    1
    31    15    16    1
    32    16    17    1
    33    33    27   ar
    34    17    15    1
    35    24    18   ar
    36    11    14    1
@<TRIPOS>MOLECULE
*****
 34 36 0 0 0
SMALL
GASTEIGER

@<TRIPOS>ATOM
      1 C          64.2434   88.6065   14.5920 C.3     1  UNL1        0.1532
      2 N          63.3467   86.8781   16.3121 N.am    1  UNL1       -0.2750
      3 C          62.4817   86.5489   17.4925 C.3     1  UNL1        0.1149
      4 C          63.3784   88.2773   15.7724 C.2     1  UNL1        0.2439
      5 O          62.5451   89.3473   16.4132 O.2     1  UNL1       -0.2731
      6 C          64.1801   85.8080   15.6712 C.3     1  UNL1        0.1108
      7 C          63.7448   84.3744   15.7434 C.3     1  UNL1        0.0939
      8 C          64.5991   83.6840   13.3890 C.3     1  UNL1        0.0897
      9 N          63.5798   83.5763   14.4842 N.3     1  UNL1       -0.2688
     10 C          62.3954   82.6706   14.3200 C.3     1  UNL1        0.0897
     11 N          65.2779   89.6874   14.6985 N.am    1  UNL1       -0.2978
     12 C          64.8582   91.1273   14.7246 C.2     1  UNL1        0.2257
     13 O          63.4040   91.4862   14.6442 O.2     1  UNL1       -0.2748
     14 H          66.2324   89.4519   14.7512 H       1  UNL1        0.1498
     15 C          65.8927   92.2083   14.8311 C.3     1  UNL1        0.0884
     16 C          66.7498   93.2851   15.4275 C.3     1  UNL1        0.0135
     17 C          65.7413   92.5721   16.2785 C.3     1  UNL1        0.0135
     18 C          66.4035   92.2199   13.4208 C.ar    1  UNL1       -0.0040
     19 C          65.4665   92.5116   12.2863 C.ar    1  UNL1       -0.0021
     20 C          65.9773   92.5233   10.8759 C.ar    1  UNL1        0.0111
     21 C          67.4248   92.2432   10.6001 C.ar    1  UNL1        0.0585
     22 CL         67.9355   92.2549    9.1898 Cl      1  UNL1       -0.0822
     23 C          68.3617   91.9515   11.7347 C.ar    1  UNL1        0.0225
     24 C          67.8510   91.9398   13.1450 C.ar    1  UNL1        0.0550
     25 CL         68.7879   91.6481   14.2796 Cl      1  UNL1       -0.0825
     26 C          64.0739   87.8547   13.3051 C.3     1  UNL1        0.0562
     27 C          63.0991   88.3423   12.2745 C.ar    1  UNL1       -0.0094
     28 C          62.9297   89.8140   12.0393 C.ar    1  UNL1       -0.0025
     29 C          61.9549   90.3014   11.0087 C.ar    1  UNL1        0.0111
     30 C          61.1496   89.3172   10.2133 C.ar    1  UNL1        0.0585
     31 CL         60.1747   89.8047    9.1827 Cl      1  UNL1       -0.0822
     32 C          61.3190   87.8455   10.4485 C.ar    1  UNL1        0.0225
     33 C          62.2937   87.3580   11.4791 C.ar    1  UNL1        0.0546
     34 CL         62.4632   85.8863   11.7143 Cl      1  UNL1       -0.0825
@<TRIPOS>BOND
     1     8     9    1
     2     9    10    1
     3     9     7    1
     4     7     6    1
     5     6     2    1
     6     2     3    1
     7     2     4   am
     8     4     5    2
     9     4     1    1
    10     1    26    1
    11    26    27    1
    12    27    28   ar
    13    28    29   ar
    14    29    30   ar
    15    30    31    1
    16    30    32   ar
    17    32    33   ar
    18    33    34    1
    19     1    11    1
    20    11    12   am
    21    12    13    2
    22    12    15    1
    23    15    18    1
    24    18    19   ar
    25    19    20   ar
    26    20    21   ar
    27    21    22    1
    28    21    23   ar
    29    23    24   ar
    30    24    25    1
    31    15    16    1
    32    16    17    1
    33    33    27   ar
    34    17    15    1
    35    24    18   ar
    36    11    14    1
@<TRIPOS>MOLECULE
*****
 34 36 0 0 0
SMALL
GASTEIGER

@<TRIPOS>ATOM
      1 C          62.6673   88.8034   11.8626 C.3     1  UNL1        0.1532
      2 N          61.0066   87.7722   10.1512 N.am    1  UNL1       -0.2750
      3 C          59.6029   87.4326    9.7457 C.3     1  UNL1        0.1149
      4 C          61.2635   88.4638   11.4572 C.2     1  UNL1        0.2439
      5 O          60.1168   88.8159   12.3577 O.2     1  UNL1       -0.2731
      6 C          62.1534   87.4201    9.2506 C.3     1  UNL1        0.1108
      7 C          62.3857   85.9918    8.8557 C.3     1  UNL1        0.0939
      8 C          60.3115   85.7037    7.3180 C.3     1  UNL1        0.0897
      9 N          61.7616   85.4485    7.6046 N.3     1  UNL1       -0.2688
     10 C          62.5875   84.6501    6.6400 C.3     1  UNL1        0.0897
     11 N          63.4841   87.8131   12.6385 N.am    1  UNL1       -0.2978
     12 C          62.9931   86.4060   12.8095 C.2     1  UNL1        0.2257
     13 O          61.6852   85.9894   12.2048 O.2     1  UNL1       -0.2748
     14 H          64.3426   88.0865   13.0354 H       1  UNL1        0.1498
     15 C          63.8100   85.4157   13.5854 C.3     1  UNL1        0.0884
     16 C          64.6972   84.8503   14.6545 C.3     1  UNL1        0.0135
     17 C          64.2964   86.2950   14.6992 C.3     1  UNL1        0.0135
     18 C          63.6073   84.1925   12.7412 C.ar    1  UNL1       -0.0040
     19 C          64.2810   84.0833   11.4054 C.ar    1  UNL1       -0.0021
     20 C          64.0784   82.8600   10.5611 C.ar    1  UNL1        0.0111
     21 C          63.2021   81.7462   11.0526 C.ar    1  UNL1        0.0585
     22 CL         62.9995   80.5231   10.2083 Cl      1  UNL1       -0.0822
     23 C          62.5284   81.8556   12.3884 C.ar    1  UNL1        0.0225
     24 C          62.7311   83.0788   13.2326 C.ar    1  UNL1        0.0550
     25 CL         62.0574   83.1881   14.5684 Cl      1  UNL1       -0.0825
     26 C          63.2540   90.1332   11.4921 C.3     1  UNL1        0.0562
     27 C          64.1390   90.8588   12.4619 C.ar    1  UNL1       -0.0094
     28 C          64.2061   90.4148   13.8931 C.ar    1  UNL1       -0.0025
     29 C          65.0911   91.1404   14.8627 C.ar    1  UNL1        0.0111
     30 C          65.9089   92.3101   14.4012 C.ar    1  UNL1        0.0585
     31 CL         66.7938   93.0358   15.3709 Cl      1  UNL1       -0.0822
     32 C          65.8417   92.7542   12.9700 C.ar    1  UNL1        0.0225
     33 C          64.9568   92.0285   12.0004 C.ar    1  UNL1        0.0546
     34 CL         64.8897   92.4726   10.5691 Cl      1  UNL1       -0.0825
@<TRIPOS>BOND
     1     8     9    1
     2     9    10    1
     3     9     7    1
     4     7     6    1
     5     6     2    1
     6     2     3    1
     7     2     4   am
     8     4     5    2
     9     4     1    1
    10     1    26    1
    11    26    27    1
    12    27    28   ar
    13    28    29   ar
    14    29    30   ar
    15    30    31    1
    16    30    32   ar
    17    32    33   ar
    18    33    34    1
    19     1    11    1
    20    11    12   am
    21    12    13    2
    22    12    15    1
    23    15    18    1
    24    18    19   ar
    25    19    20   ar
    26    20    21   ar
    27    21    22    1
    28    21    23   ar
    29    23    24   ar
    30    24    25    1
    31    15    16    1
    32    16    17    1
    33    33    27   ar
    34    17    15    1
    35    24    18   ar
    36    11    14    1
@<TRIPOS>MOLECULE
*****
 34 36 0 0 0
SMALL
GASTEIGER

@<TRIPOS>ATOM
      1 C          63.9604   86.7887   14.1745 C.3     1  UNL1        0.1532
      2 N          63.7926   89.1387   15.2698 N.am    1  UNL1       -0.2750
      3 C          63.3659   90.0119   16.4123 C.3     1  UNL1        0.1149
      4 C          63.5337   87.6620   15.3171 C.2     1  UNL1        0.2439
      5 O          62.8481   87.0585   16.5069 O.2     1  UNL1       -0.2731
      6 C          64.4782   89.7422   14.0798 C.3     1  UNL1        0.1108
      7 C          65.6136   90.7027   14.2757 C.3     1  UNL1        0.0939
      8 C          66.3211   93.1967   14.1057 C.3     1  UNL1        0.0897
      9 N          65.6409   91.9964   13.5171 N.3     1  UNL1       -0.2688
     10 C          64.9879   92.0898   12.1698 C.3     1  UNL1        0.0897
     11 N          63.6035   87.1670   12.7675 N.am    1  UNL1       -0.2978
     12 C          62.4805   86.4642   12.0639 C.2     1  UNL1        0.2257
     13 O          61.7145   85.3832   12.7671 O.2     1  UNL1       -0.2748
     14 H          64.1063   87.8765   12.3060 H       1  UNL1        0.1498
     15 C          62.1237   86.8424   10.6569 C.3     1  UNL1        0.0884
     16 C          62.0668   86.8046    9.1585 C.3     1  UNL1        0.0135
     17 C          62.8635   85.7760    9.9048 C.3     1  UNL1        0.0135
     18 C          61.2599   88.0402   10.9202 C.ar    1  UNL1       -0.0040
     19 C          59.8531   87.8576   11.4075 C.ar    1  UNL1       -0.0021
     20 C          58.9893   89.0555   11.6709 C.ar    1  UNL1        0.0111
     21 C          59.5324   90.4356   11.4470 C.ar    1  UNL1        0.0585
     22 CL         58.6687   91.6333   11.7104 Cl      1  UNL1       -0.0822
     23 C          60.9393   90.6180   10.9597 C.ar    1  UNL1        0.0225
     24 C          61.8030   89.4203   10.6963 C.ar    1  UNL1        0.0550
     25 CL         63.2099   89.6028   10.2090 Cl      1  UNL1       -0.0825
     26 C          64.7439   85.5373   14.4389 C.3     1  UNL1        0.0562
     27 C          64.2287   84.2137   13.9564 C.ar    1  UNL1       -0.0094
     28 C          64.7192   83.6463   12.6575 C.ar    1  UNL1       -0.0025
     29 C          64.2039   82.3228   12.1750 C.ar    1  UNL1        0.0111
     30 C          63.1981   81.5667   12.9915 C.ar    1  UNL1        0.0585
     31 CL         62.6829   80.2432   12.5090 Cl      1  UNL1       -0.0822
     32 C          62.7076   82.1341   14.2905 C.ar    1  UNL1        0.0225
     33 C          63.2229   83.4576   14.7730 C.ar    1  UNL1        0.0546
     34 CL         62.7323   84.0251   16.0720 Cl      1  UNL1       -0.0825
@<TRIPOS>BOND
     1     8     9    1
     2     9    10    1
     3     9     7    1
     4     7     6    1
     5     6     2    1
     6     2     3    1
     7     2     4   am
     8     4     5    2
     9     4     1    1
    10     1    26    1
    11    26    27    1
    12    27    28   ar
    13    28    29   ar
    14    29    30   ar
    15    30    31    1
    16    30    32   ar
    17    32    33   ar
    18    33    34    1
    19     1    11    1
    20    11    12   am
    21    12    13    2
    22    12    15    1
    23    15    18    1
    24    18    19   ar
    25    19    20   ar
    26    20    21   ar
    27    21    22    1
    28    21    23   ar
    29    23    24   ar
    30    24    25    1
    31    15    16    1
    32    16    17    1
    33    33    27   ar
    34    17    15    1
    35    24    18   ar
    36    11    14    1
@<TRIPOS>MOLECULE
*****
 34 36 0 0 0
SMALL
GASTEIGER

@<TRIPOS>ATOM
      1 C          61.6229   87.2158   11.3845 C.3     1  UNL1        0.1532
      2 N          60.0989   87.1118    9.2829 N.am    1  UNL1       -0.2750
      3 C          58.8030   87.4360    8.6006 C.3     1  UNL1        0.1149
      4 C          60.3269   87.5400   10.7022 C.2     1  UNL1        0.2439
      5 O          59.2591   88.2926   11.4394 O.2     1  UNL1       -0.2731
      6 C          61.1668   86.3592    8.5458 C.3     1  UNL1        0.1108
      7 C          60.8236   85.5974    7.3000 C.3     1  UNL1        0.0939
      8 C          63.1971   84.5409    7.2833 C.3     1  UNL1        0.0897
      9 N          61.8622   84.7469    6.6308 N.3     1  UNL1       -0.2688
     10 C          61.5660   84.1024    5.3091 C.3     1  UNL1        0.0897
     11 N          61.7085   86.0400   12.3120 N.am    1  UNL1       -0.2978
     12 C          62.5998   84.8817   11.9744 C.2     1  UNL1        0.2257
     13 O          63.4055   84.8991   10.7093 O.2     1  UNL1       -0.2748
     14 H          61.1797   86.0286   13.1424 H       1  UNL1        0.1498
     15 C          62.6854   83.7060   12.9019 C.3     1  UNL1        0.0884
     16 C          62.7430   82.2827   13.3719 C.3     1  UNL1        0.0135
     17 C          62.6345   82.5847   11.9067 C.3     1  UNL1        0.0135
     18 C          62.7660   84.4188   14.2193 C.ar    1  UNL1       -0.0040
     19 C          61.5252   84.6284   15.0356 C.ar    1  UNL1       -0.0021
     20 C          61.6058   85.3413   16.3530 C.ar    1  UNL1        0.0111
     21 C          62.9271   85.8443   16.8540 C.ar    1  UNL1        0.0585
     22 CL         63.0077   86.5571   18.1713 Cl      1  UNL1       -0.0822
     23 C          64.1679   85.6346   16.0376 C.ar    1  UNL1        0.0225
     24 C          64.0873   84.9218   14.7202 C.ar    1  UNL1        0.0550
     25 CL         65.3281   84.7121   13.9038 Cl      1  UNL1       -0.0825
     26 C          62.8332   88.0672   11.1391 C.3     1  UNL1        0.0562
     27 C          63.3651   88.9472   12.2313 C.ar    1  UNL1       -0.0094
     28 C          63.8405   88.3410   13.5183 C.ar    1  UNL1       -0.0025
     29 C          64.3723   89.2210   14.6104 C.ar    1  UNL1        0.0111
     30 C          64.4287   90.7072   14.4155 C.ar    1  UNL1        0.0585
     31 CL         64.9606   91.5873   15.5076 Cl      1  UNL1       -0.0822
     32 C          63.9533   91.3134   13.1285 C.ar    1  UNL1        0.0225
     33 C          63.4215   90.4334   12.0364 C.ar    1  UNL1        0.0546
     34 CL         62.9460   91.0396   10.7493 Cl      1  UNL1       -0.0825
@<TRIPOS>BOND
     1     8     9    1
     2     9    10    1
     3     9     7    1
     4     7     6    1
     5     6     2    1
     6     2     3    1
     7     2     4   am
     8     4     5    2
     9     4     1    1
    10     1    26    1
    11    26    27    1
    12    27    28   ar
    13    28    29   ar
    14    29    30   ar
    15    30    31    1
    16    30    32   ar
    17    32    33   ar
    18    33    34    1
    19     1    11    1
    20    11    12   am
    21    12    13    2
    22    12    15    1
    23    15    18    1
    24    18    19   ar
    25    19    20   ar
    26    20    21   ar
    27    21    22    1
    28    21    23   ar
    29    23    24   ar
    30    24    25    1
    31    15    16    1
    32    16    17    1
    33    33    27   ar
    34    17    15    1
    35    24    18   ar
    36    11    14    1
@<TRIPOS>MOLECULE
*****
 34 36 0 0 0
SMALL
GASTEIGER

@<TRIPOS>ATOM
      1 C          63.8616   89.6520   14.3661 C.3     1  UNL1        0.1532
      2 N          65.3638   91.5615   15.2868 N.am    1  UNL1       -0.2750
      3 C          65.6640   92.5837   16.3426 C.3     1  UNL1        0.1149
      4 C          64.1618   90.6743   15.4220 C.2     1  UNL1        0.2439
      5 O          63.2600   90.8095   16.6130 O.2     1  UNL1       -0.2731
      6 C          66.2655   91.4262   14.0957 C.3     1  UNL1        0.1108
      7 C          67.0825   92.5975   13.6367 C.3     1  UNL1        0.0939
      8 C          66.2385   94.4337   12.0039 C.3     1  UNL1        0.0897
      9 N          66.9245   93.1208   12.2399 N.3     1  UNL1       -0.2688
     10 C          67.4525   92.3312   11.0790 C.3     1  UNL1        0.0897
     11 N          63.2151   88.3520   14.7431 N.am    1  UNL1       -0.2978
     12 C          64.0572   87.1281   14.9507 C.2     1  UNL1        0.2257
     13 O          65.5456   87.2042   14.7813 O.2     1  UNL1       -0.2748
     14 H          62.2382   88.3021   14.8543 H       1  UNL1        0.1498
     15 C          63.4107   85.8281   15.3277 C.3     1  UNL1        0.0884
     16 C          62.7324   84.7803   16.1596 C.3     1  UNL1        0.0135
     17 C          63.0946   86.1025   16.7682 C.3     1  UNL1        0.0135
     18 C          63.5023   85.1022   14.0183 C.ar    1  UNL1       -0.0040
     19 C          62.4594   85.3242   12.9633 C.ar    1  UNL1       -0.0021
     20 C          62.5509   84.5983   11.6537 C.ar    1  UNL1        0.0111
     21 C          63.6853   83.6505   11.3993 C.ar    1  UNL1        0.0585
     22 CL         63.7769   82.9246   10.0899 Cl      1  UNL1       -0.0822
     23 C          64.7282   83.4286   12.4544 C.ar    1  UNL1        0.0225
     24 C          64.6366   84.1544   13.7639 C.ar    1  UNL1        0.0550
     25 CL         65.6795   83.9325   14.8190 Cl      1  UNL1       -0.0825
     26 C          64.2079   89.9297   12.9333 C.3     1  UNL1        0.0562
     27 C          63.1827   89.7170   11.8591 C.ar    1  UNL1       -0.0094
     28 C          62.2997   88.5049   11.8945 C.ar    1  UNL1       -0.0025
     29 C          61.2746   88.2923   10.8203 C.ar    1  UNL1        0.0111
     30 C          61.1324   89.2916    9.7108 C.ar    1  UNL1        0.0585
     31 CL         60.1072   89.0789    8.6366 Cl      1  UNL1       -0.0822
     32 C          62.0154   90.5037    9.6755 C.ar    1  UNL1        0.0225
     33 C          63.0405   90.7163   10.7496 C.ar    1  UNL1        0.0546
     34 CL         63.9236   91.9284   10.7143 Cl      1  UNL1       -0.0825
@<TRIPOS>BOND
     1     8     9    1
     2     9    10    1
     3     9     7    1
     4     7     6    1
     5     6     2    1
     6     2     3    1
     7     2     4   am
     8     4     5    2
     9     4     1    1
    10     1    26    1
    11    26    27    1
    12    27    28   ar
    13    28    29   ar
    14    29    30   ar
    15    30    31    1
    16    30    32   ar
    17    32    33   ar
    18    33    34    1
    19     1    11    1
    20    11    12   am
    21    12    13    2
    22    12    15    1
    23    15    18    1
    24    18    19   ar
    25    19    20   ar
    26    20    21   ar
    27    21    22    1
    28    21    23   ar
    29    23    24   ar
    30    24    25    1
    31    15    16    1
    32    16    17    1
    33    33    27   ar
    34    17    15    1
    35    24    18   ar
    36    11    14    1
@<TRIPOS>MOLECULE
*****
 34 36 0 0 0
SMALL
GASTEIGER

@<TRIPOS>ATOM
      1 C          62.5965   87.8019   10.7633 C.3     1  UNL1        0.1532
      2 N          60.6510   87.7500    9.0421 N.am    1  UNL1       -0.2750
      3 C          60.0546   87.2217    7.7712 C.3     1  UNL1        0.1149
      4 C          62.0001   87.2735    9.4923 C.2     1  UNL1        0.2439
      5 O          62.7529   86.2687    8.6717 O.2     1  UNL1       -0.2731
      6 C          59.8982   88.7549    9.8628 C.3     1  UNL1        0.1108
      7 C          59.2454   88.3367   11.1470 C.3     1  UNL1        0.0939
      8 C          58.3444   88.9462   13.5063 C.3     1  UNL1        0.0897
      9 N          58.8548   89.3705   12.1612 N.3     1  UNL1       -0.2688
     10 C          58.9746   90.8287   11.8303 C.3     1  UNL1        0.0897
     11 N          63.4267   86.9042   11.6321 N.am    1  UNL1       -0.2978
     12 C          62.7846   85.7583   12.3565 C.2     1  UNL1        0.2257
     13 O          61.3124   85.5101   12.2121 O.2     1  UNL1       -0.2748
     14 H          64.3930   87.0671   11.7269 H       1  UNL1        0.1498
     15 C          63.6149   84.8606   13.2254 C.3     1  UNL1        0.0884
     16 C          64.4982   84.4127   14.3518 C.3     1  UNL1        0.0135
     17 C          64.0563   85.8436   14.2690 C.3     1  UNL1        0.0135
     18 C          63.4618   83.5659   12.4836 C.ar    1  UNL1       -0.0040
     19 C          64.0860   83.3988   11.1300 C.ar    1  UNL1       -0.0021
     20 C          63.9330   82.1040   10.3881 C.ar    1  UNL1        0.0111
     21 C          63.1558   80.9764   11.0000 C.ar    1  UNL1        0.0585
     22 CL         63.0027   79.6817   10.2583 Cl      1  UNL1       -0.0822
     23 C          62.5316   81.1436   12.3538 C.ar    1  UNL1        0.0225
     24 C          62.6846   82.4383   13.0955 C.ar    1  UNL1        0.0550
     25 CL         62.0604   82.6054   14.4492 Cl      1  UNL1       -0.0825
     26 C          62.3626   89.2279   11.1654 C.3     1  UNL1        0.0562
     27 C          63.3385   89.9224   12.0684 C.ar    1  UNL1       -0.0094
     28 C          63.6829   89.3258   13.4008 C.ar    1  UNL1       -0.0025
     29 C          64.6588   90.0202   14.3038 C.ar    1  UNL1        0.0111
     30 C          65.2903   91.3112   13.8742 C.ar    1  UNL1        0.0585
     31 CL         66.2663   92.0056   14.7772 Cl      1  UNL1       -0.0822
     32 C          64.9460   91.9078   12.5418 C.ar    1  UNL1        0.0225
     33 C          63.9701   91.2133   11.6388 C.ar    1  UNL1        0.0546
     34 CL         63.6257   91.8099   10.3063 Cl      1  UNL1       -0.0825
@<TRIPOS>BOND
     1     8     9    1
     2     9    10    1
     3     9     7    1
     4     7     6    1
     5     6     2    1
     6     2     3    1
     7     2     4   am
     8     4     5    2
     9     4     1    1
    10     1    26    1
    11    26    27    1
    12    27    28   ar
    13    28    29   ar
    14    29    30   ar
    15    30    31    1
    16    30    32   ar
    17    32    33   ar
    18    33    34    1
    19     1    11    1
    20    11    12   am
    21    12    13    2
    22    12    15    1
    23    15    18    1
    24    18    19   ar
    25    19    20   ar
    26    20    21   ar
    27    21    22    1
    28    21    23   ar
    29    23    24   ar
    30    24    25    1
    31    15    16    1
    32    16    17    1
    33    33    27   ar
    34    17    15    1
    35    24    18   ar
    36    11    14    1
