@<TRIPOS>MOLECULE
*****
 28 31 0 0 0
SMALL
GASTEIGER

@<TRIPOS>ATOM
      1 N          62.1192   87.0057   11.5118 N.3     1  UNL1       -0.2626
      2 C          62.6141   85.6185   11.2275 C.3     1  UNL1        0.0981
      3 C          63.0066   85.2335    9.8319 C.3     1  UNL1        0.0224
      4 C          63.5015   83.8463    9.5477 C.3     1  UNL1        0.0065
      5 C          63.6038   82.8441   10.6590 C.3     1  UNL1        0.0277
      6 C          63.2113   83.2291   12.0547 C.ar    1  UNL1       -0.0073
      7 C          63.3137   82.2269   13.1660 C.ar    1  UNL1       -0.0015
      8 C          62.9212   82.6119   14.5616 C.ar    1  UNL1        0.0203
      9 C          62.4263   83.9990   14.8458 C.ar    1  UNL1        0.0985
     10 N          62.3239   85.0012   13.7345 N.ar    1  UNL1       -0.2471
     11 C          62.7164   84.6163   12.3389 C.ar    1  UNL1        0.0695
     12 C          60.6826   87.3559   11.2594 C.3     1  UNL1        0.1390
     13 C          59.3050   88.3365    7.0892 C.ar    1  UNL1        0.0413
     14 C          59.7983   89.4279    7.9921 C.ar    1  UNL1        0.1019
     15 N          60.2575   89.1010    9.3822 N.ar    1  UNL1       -0.2277
     16 C          60.2234   87.6827    9.8693 C.ar    1  UNL1        0.1553
     17 N          59.7300   86.5912    8.9663 N.ar    1  UNL1       -0.2277
     18 C          59.2708   86.9181    7.5762 C.ar    1  UNL1        0.1019
     19 C          63.0608   88.0426   12.0484 C.3     1  UNL1        0.0742
     20 C          62.8082   89.4964   11.7788 C.3     1  UNL1        0.0347
     21 C          63.2637   90.5320   12.7638 C.3     1  UNL1        0.0736
     22 N          64.4348   91.4115   12.4397 N.3     1  UNL1       -0.2703
     23 C          64.6018   91.9570   11.0523 C.3     1  UNL1        0.0894
     24 C          65.7729   92.8364   10.7282 C.3     1  UNL1        0.0862
     25 N          66.7770   93.1704   11.7914 N.3     1  UNL1       -0.2951
     26 C          66.6099   92.6250   13.1787 C.3     1  UNL1        0.0862
     27 C          65.4388   91.7455   13.5028 C.3     1  UNL1        0.0894
     28 H          66.7909   94.1869   11.8744 H       1  UNL1        0.1233
@<TRIPOS>BOND
     1    13    14   ar
     2    14    15   ar
     3    15    16   ar
     4    16    12    1
     5    12     1    1
     6     1    19    1
     7    19    20    1
     8    20    21    1
     9    21    22    1
    10    22    23    1
    11    23    24    1
    12    24    25    1
    13    25    26    1
    14    26    27    1
    15     2     1    1
    16     2     3    1
    17     3     4    1
    18     4     5    1
    19     5     6    1
    20     6     7   ar
    21     7     8   ar
    22     8     9   ar
    23     9    10   ar
    24    10    11   ar
    25    16    17   ar
    26    17    18   ar
    27    18    13   ar
    28    27    22    1
    29    11     2    1
    30    11     6   ar
    31    25    28    1
@<TRIPOS>MOLECULE
*****
 28 31 0 0 0
SMALL
GASTEIGER

@<TRIPOS>ATOM
      1 N          63.5636   88.8145   13.7218 N.3     1  UNL1       -0.2626
      2 C          63.1125   89.1629   12.3343 C.3     1  UNL1        0.0981
      3 C          63.2808   90.5620   11.8202 C.3     1  UNL1        0.0224
      4 C          62.8297   90.9105   10.4327 C.3     1  UNL1        0.0065
      5 C          62.2105   89.8599    9.5594 C.3     1  UNL1        0.0277
      6 C          62.0422   88.4608   10.0735 C.ar    1  UNL1       -0.0073
      7 C          61.4230   87.4103    9.2001 C.ar    1  UNL1       -0.0015
      8 C          61.2548   86.0112    9.7142 C.ar    1  UNL1        0.0203
      9 C          61.7058   85.6627   11.1017 C.ar    1  UNL1        0.0985
     10 N          62.3250   86.7133   11.9751 N.ar    1  UNL1       -0.2471
     11 C          62.4933   88.1123   11.4609 C.ar    1  UNL1        0.0695
     12 C          63.2745   89.7468   14.8608 C.3     1  UNL1        0.1390
     13 C          66.3705   92.7451   16.1552 C.ar    1  UNL1        0.0413
     14 C          66.6588   91.8139   15.0152 C.ar    1  UNL1        0.1019
     15 N          65.6268   90.8145   14.5837 N.ar    1  UNL1       -0.2277
     16 C          64.3065   90.7463   15.2923 C.ar    1  UNL1        0.1553
     17 N          64.0181   91.6775   16.4323 N.ar    1  UNL1       -0.2277
     18 C          65.0501   92.6769   16.8638 C.ar    1  UNL1        0.1019
     19 C          64.3036   87.5337   13.9704 C.3     1  UNL1        0.0742
     20 C          64.0268   86.7359   15.2101 C.3     1  UNL1        0.0347
     21 C          64.5473   85.3344   15.3320 C.3     1  UNL1        0.0736
     22 N          63.8966   84.2231   14.5627 N.3     1  UNL1       -0.2703
     23 C          64.3852   83.8767   13.1874 C.3     1  UNL1        0.0894
     24 C          63.7345   82.7655   12.4182 C.3     1  UNL1        0.0862
     25 N          62.5952   82.0007   13.0242 N.3     1  UNL1       -0.2951
     26 C          62.1066   82.3472   14.3994 C.3     1  UNL1        0.0862
     27 C          62.7573   83.4584   15.1686 C.3     1  UNL1        0.0894
     28 H          62.8789   81.0213   13.0506 H       1  UNL1        0.1233
@<TRIPOS>BOND
     1    13    14   ar
     2    14    15   ar
     3    15    16   ar
     4    16    12    1
     5    12     1    1
     6     1    19    1
     7    19    20    1
     8    20    21    1
     9    21    22    1
    10    22    23    1
    11    23    24    1
    12    24    25    1
    13    25    26    1
    14    26    27    1
    15     2     1    1
    16     2     3    1
    17     3     4    1
    18     4     5    1
    19     5     6    1
    20     6     7   ar
    21     7     8   ar
    22     8     9   ar
    23     9    10   ar
    24    10    11   ar
    25    16    17   ar
    26    17    18   ar
    27    18    13   ar
    28    27    22    1
    29    11     2    1
    30    11     6   ar
    31    25    28    1
@<TRIPOS>MOLECULE
*****
 28 31 0 0 0
SMALL
GASTEIGER

@<TRIPOS>ATOM
      1 N          63.2681   85.3270   12.7602 N.3     1  UNL1       -0.2626
      2 C          63.4098   84.0393   12.0043 C.3     1  UNL1        0.0981
      3 C          64.0772   84.0276   10.6611 C.3     1  UNL1        0.0224
      4 C          64.2189   82.7398    9.9051 C.3     1  UNL1        0.0065
      5 C          63.6931   81.4637   10.4923 C.3     1  UNL1        0.0277
      6 C          63.0256   81.4752   11.8356 C.ar    1  UNL1       -0.0073
      7 C          62.4998   80.1991   12.4228 C.ar    1  UNL1       -0.0015
      8 C          61.8323   80.2107   13.7661 C.ar    1  UNL1        0.0203
      9 C          61.6906   81.4985   14.5220 C.ar    1  UNL1        0.0985
     10 N          62.2164   82.7747   13.9348 N.ar    1  UNL1       -0.2471
     11 C          62.8839   82.7630   12.5916 C.ar    1  UNL1        0.0695
     12 C          64.1882   85.6295   13.9056 C.3     1  UNL1        0.1390
     13 C          63.1411   88.8812   16.8348 C.ar    1  UNL1        0.0413
     14 C          63.7434   89.2333   15.5070 C.ar    1  UNL1        0.1019
     15 N          64.0924   88.1494   14.5306 N.ar    1  UNL1       -0.2277
     16 C          63.8392   86.7134   14.8820 C.ar    1  UNL1        0.1553
     17 N          63.2369   86.3612   16.2099 N.ar    1  UNL1       -0.2277
     18 C          62.8879   87.4451   17.1863 C.ar    1  UNL1        0.1019
     19 C          62.2063   86.3124   12.3709 C.3     1  UNL1        0.0742
     20 C          62.4691   87.3054   11.2778 C.3     1  UNL1        0.0347
     21 C          61.3936   88.2647   10.8615 C.3     1  UNL1        0.0736
     22 N          60.6268   88.0279    9.5943 N.3     1  UNL1       -0.2703
     23 C          60.3235   86.6270    9.1519 C.3     1  UNL1        0.0894
     24 C          59.5568   86.3902    7.8846 C.3     1  UNL1        0.0862
     25 N          59.0933   87.5543    7.0598 N.3     1  UNL1       -0.2951
     26 C          59.3966   88.9550    7.5022 C.3     1  UNL1        0.0862
     27 C          60.1634   89.1919    8.7695 C.3     1  UNL1        0.0894
     28 H          58.0783   87.4806    6.9906 H       1  UNL1        0.1233
@<TRIPOS>BOND
     1    13    14   ar
     2    14    15   ar
     3    15    16   ar
     4    16    12    1
     5    12     1    1
     6     1    19    1
     7    19    20    1
     8    20    21    1
     9    21    22    1
    10    22    23    1
    11    23    24    1
    12    24    25    1
    13    25    26    1
    14    26    27    1
    15     2     1    1
    16     2     3    1
    17     3     4    1
    18     4     5    1
    19     5     6    1
    20     6     7   ar
    21     7     8   ar
    22     8     9   ar
    23     9    10   ar
    24    10    11   ar
    25    16    17   ar
    26    17    18   ar
    27    18    13   ar
    28    27    22    1
    29    11     2    1
    30    11     6   ar
    31    25    28    1
@<TRIPOS>MOLECULE
*****
 28 31 0 0 0
SMALL
GASTEIGER

@<TRIPOS>ATOM
      1 N          62.0254   88.2738   11.4602 N.3     1  UNL1       -0.2626
      2 C          62.8321   89.5368   11.5248 C.3     1  UNL1        0.0981
      3 C          63.0698   90.3394   10.2801 C.3     1  UNL1        0.0224
      4 C          63.8764   91.6024   10.3447 C.3     1  UNL1        0.0065
      5 C          64.4454   92.0628   11.6540 C.3     1  UNL1        0.0277
      6 C          64.2077   91.2602   12.8988 C.ar    1  UNL1       -0.0073
      7 C          64.7767   91.7206   14.2081 C.ar    1  UNL1       -0.0015
      8 C          64.5390   90.9180   15.4527 C.ar    1  UNL1        0.0203
      9 C          63.7323   89.6550   15.3881 C.ar    1  UNL1        0.0985
     10 N          63.1634   89.1946   14.0788 N.ar    1  UNL1       -0.2471
     11 C          63.4011   89.9972   12.8342 C.ar    1  UNL1        0.0695
     12 C          60.5570   88.3363   11.1605 C.3     1  UNL1        0.1390
     13 C          59.1120   88.0138    6.9110 C.ar    1  UNL1        0.0413
     14 C          59.5977   89.3306    7.4402 C.ar    1  UNL1        0.1019
     15 N          60.0793   89.4381    8.8567 N.ar    1  UNL1       -0.2277
     16 C          60.0753   88.2288    9.7440 C.ar    1  UNL1        0.1553
     17 N          59.5897   86.9119    9.2149 N.ar    1  UNL1       -0.2277
     18 C          59.1080   86.8044    7.7984 C.ar    1  UNL1        0.1019
     19 C          62.6872   86.9484   11.6951 C.3     1  UNL1        0.0742
     20 C          61.9502   85.6778   11.3913 C.3     1  UNL1        0.0347
     21 C          62.6957   84.3784   11.3144 C.3     1  UNL1        0.0736
     22 N          62.6336   83.4093   12.4577 N.3     1  UNL1       -0.2703
     23 C          62.6222   83.9152   13.8698 C.3     1  UNL1        0.0894
     24 C          62.5600   82.9461   15.0131 C.3     1  UNL1        0.0862
     25 N          62.5093   81.4712   14.7443 N.3     1  UNL1       -0.2951
     26 C          62.5208   80.9655   13.3322 C.3     1  UNL1        0.0862
     27 C          62.5829   81.9345   12.1889 C.3     1  UNL1        0.0894
     28 H          61.6529   81.1227   15.1749 H       1  UNL1        0.1233
@<TRIPOS>BOND
     1    13    14   ar
     2    14    15   ar
     3    15    16   ar
     4    16    12    1
     5    12     1    1
     6     1    19    1
     7    19    20    1
     8    20    21    1
     9    21    22    1
    10    22    23    1
    11    23    24    1
    12    24    25    1
    13    25    26    1
    14    26    27    1
    15     2     1    1
    16     2     3    1
    17     3     4    1
    18     4     5    1
    19     5     6    1
    20     6     7   ar
    21     7     8   ar
    22     8     9   ar
    23     9    10   ar
    24    10    11   ar
    25    16    17   ar
    26    17    18   ar
    27    18    13   ar
    28    27    22    1
    29    11     2    1
    30    11     6   ar
    31    25    28    1
@<TRIPOS>MOLECULE
*****
 28 31 0 0 0
SMALL
GASTEIGER

@<TRIPOS>ATOM
      1 N          63.4823   85.0379   12.6834 N.3     1  UNL1       -0.2626
      2 C          63.5561   83.7208   11.9694 C.3     1  UNL1        0.0981
      3 C          64.2579   83.6226   10.6474 C.3     1  UNL1        0.0224
      4 C          64.3316   82.3055    9.9334 C.3     1  UNL1        0.0065
      5 C          63.7035   81.0866   10.5415 C.3     1  UNL1        0.0277
      6 C          63.0016   81.1848   11.8635 C.ar    1  UNL1       -0.0073
      7 C          62.3735   79.9659   12.4715 C.ar    1  UNL1       -0.0015
      8 C          61.6717   80.0641   13.7935 C.ar    1  UNL1        0.0203
      9 C          61.5980   81.3812   14.5075 C.ar    1  UNL1        0.0985
     10 N          62.2261   82.6001   13.8995 N.ar    1  UNL1       -0.2471
     11 C          62.9279   82.5019   12.5775 C.ar    1  UNL1        0.0695
     12 C          64.3699   85.3021   13.8635 C.3     1  UNL1        0.1390
     13 C          62.9216   87.9165   17.2276 C.ar    1  UNL1        0.0413
     14 C          62.7357   86.4299   17.2997 C.ar    1  UNL1        0.1019
     15 N          63.2185   85.5584   16.1784 N.ar    1  UNL1       -0.2277
     16 C          63.8871   86.1735   14.9849 C.ar    1  UNL1        0.1553
     17 N          64.0730   87.6603   14.9127 N.ar    1  UNL1       -0.2277
     18 C          63.5903   88.5318   16.0341 C.ar    1  UNL1        0.1019
     19 C          62.5211   86.0909   12.2174 C.3     1  UNL1        0.0742
     20 C          61.5582   85.7891   11.1076 C.3     1  UNL1        0.0347
     21 C          61.2085   86.8518   10.1082 C.3     1  UNL1        0.0736
     22 N          61.0301   88.2723   10.5556 N.3     1  UNL1       -0.2703
     23 C          62.0988   89.2869   10.2749 C.3     1  UNL1        0.0894
     24 C          61.9203   90.7075   10.7223 C.3     1  UNL1        0.0862
     25 N          60.6732   91.1135   11.4502 N.3     1  UNL1       -0.2951
     26 C          59.6046   90.0990   11.7308 C.3     1  UNL1        0.0862
     27 C          59.7830   88.6784   11.2835 C.3     1  UNL1        0.0894
     28 H          60.2388   91.8541   10.8996 H       1  UNL1        0.1233
@<TRIPOS>BOND
     1    13    14   ar
     2    14    15   ar
     3    15    16   ar
     4    16    12    1
     5    12     1    1
     6     1    19    1
     7    19    20    1
     8    20    21    1
     9    21    22    1
    10    22    23    1
    11    23    24    1
    12    24    25    1
    13    25    26    1
    14    26    27    1
    15     2     1    1
    16     2     3    1
    17     3     4    1
    18     4     5    1
    19     5     6    1
    20     6     7   ar
    21     7     8   ar
    22     8     9   ar
    23     9    10   ar
    24    10    11   ar
    25    16    17   ar
    26    17    18   ar
    27    18    13   ar
    28    27    22    1
    29    11     2    1
    30    11     6   ar
    31    25    28    1
@<TRIPOS>MOLECULE
*****
 28 31 0 0 0
SMALL
GASTEIGER

@<TRIPOS>ATOM
      1 N          63.3158   89.8015   12.4273 N.3     1  UNL1       -0.2626
      2 C          62.6959   88.7432   11.5638 C.3     1  UNL1        0.0981
      3 C          61.9479   89.1309   10.3228 C.3     1  UNL1        0.0224
      4 C          61.3280   88.0726    9.4593 C.3     1  UNL1        0.0065
      5 C          61.4559   86.6265    9.8369 C.3     1  UNL1        0.0277
      6 C          62.2039   86.2388   11.0780 C.ar    1  UNL1       -0.0073
      7 C          62.3319   84.7927   11.4555 C.ar    1  UNL1       -0.0015
      8 C          63.0799   84.4051   12.6966 C.ar    1  UNL1        0.0203
      9 C          63.6998   85.4634   13.5600 C.ar    1  UNL1        0.0985
     10 N          63.5719   86.9094   13.1825 N.ar    1  UNL1       -0.2471
     11 C          62.8239   87.2971   11.9414 C.ar    1  UNL1        0.0695
     12 C          63.9738   89.4234   13.7212 C.3     1  UNL1        0.1390
     13 C          65.9348   92.5827   16.2557 C.ar    1  UNL1        0.0413
     14 C          66.7196   91.8883   15.1824 C.ar    1  UNL1        0.1019
     15 N          66.0659   90.8352   14.3376 N.ar    1  UNL1       -0.2277
     16 C          64.6275   90.4765   14.5660 C.ar    1  UNL1        0.1553
     17 N          63.8426   91.1709   15.6393 N.ar    1  UNL1       -0.2277
     18 C          64.4963   92.2240   16.4841 C.ar    1  UNL1        0.1019
     19 C          63.2778   91.2379   11.9969 C.3     1  UNL1        0.0742
     20 C          64.2575   91.7420   10.9790 C.3     1  UNL1        0.0347
     21 C          65.5948   92.2609   11.4177 C.3     1  UNL1        0.0736
     22 N          66.2936   93.3127   10.6081 N.3     1  UNL1       -0.2703
     23 C          65.7736   94.7197   10.5977 C.3     1  UNL1        0.0894
     24 C          66.4724   95.7715    9.7881 C.3     1  UNL1        0.0862
     25 N          67.6911   95.4162    8.9889 N.3     1  UNL1       -0.2951
     26 C          68.2110   94.0093    8.9994 C.3     1  UNL1        0.0862
     27 C          67.5122   92.9575    9.8090 C.3     1  UNL1        0.0894
     28 H          68.4476   96.0122    9.3250 H       1  UNL1        0.1233
@<TRIPOS>BOND
     1    13    14   ar
     2    14    15   ar
     3    15    16   ar
     4    16    12    1
     5    12     1    1
     6     1    19    1
     7    19    20    1
     8    20    21    1
     9    21    22    1
    10    22    23    1
    11    23    24    1
    12    24    25    1
    13    25    26    1
    14    26    27    1
    15     2     1    1
    16     2     3    1
    17     3     4    1
    18     4     5    1
    19     5     6    1
    20     6     7   ar
    21     7     8   ar
    22     8     9   ar
    23     9    10   ar
    24    10    11   ar
    25    16    17   ar
    26    17    18   ar
    27    18    13   ar
    28    27    22    1
    29    11     2    1
    30    11     6   ar
    31    25    28    1
@<TRIPOS>MOLECULE
*****
 28 31 0 0 0
SMALL
GASTEIGER

@<TRIPOS>ATOM
      1 N          62.8716   90.1780   12.8966 N.3     1  UNL1       -0.2626
      2 C          63.8884   91.1535   12.3821 C.3     1  UNL1        0.0981
      3 C          63.9661   91.4516   10.9141 C.3     1  UNL1        0.0224
      4 C          64.9829   92.4270   10.3997 C.3     1  UNL1        0.0065
      5 C          65.9220   93.1044   11.3532 C.3     1  UNL1        0.0277
      6 C          65.8443   92.8063   12.8213 C.ar    1  UNL1       -0.0073
      7 C          66.7834   93.4836   13.7749 C.ar    1  UNL1       -0.0015
      8 C          66.7057   93.1855   15.2428 C.ar    1  UNL1        0.0203
      9 C          65.6889   92.2101   15.7573 C.ar    1  UNL1        0.0985
     10 N          64.7498   91.5327   14.8038 N.ar    1  UNL1       -0.2471
     11 C          64.8275   91.8308   13.3358 C.ar    1  UNL1        0.0695
     12 C          61.5062   90.1217   12.2780 C.3     1  UNL1        0.1390
     13 C          60.5749   87.0125    9.1609 C.ar    1  UNL1        0.0413
     14 C          60.3982   88.4681    8.8446 C.ar    1  UNL1        0.1019
     15 N          60.7086   89.5045    9.8837 N.ar    1  UNL1       -0.2277
     16 C          61.1958   89.0853   11.2389 C.ar    1  UNL1        0.1553
     17 N          61.3726   87.6297   11.5553 N.ar    1  UNL1       -0.2277
     18 C          61.0622   86.5933   10.5163 C.ar    1  UNL1        0.1019
     19 C          63.2201   89.2590   14.0296 C.3     1  UNL1        0.0742
     20 C          64.1945   88.1390   13.8143 C.3     1  UNL1        0.0347
     21 C          64.2967   87.0302   14.8194 C.3     1  UNL1        0.0736
     22 N          63.6879   85.6915   14.5237 N.3     1  UNL1       -0.2703
     23 C          63.4938   85.2533   13.1023 C.3     1  UNL1        0.0894
     24 C          62.8850   83.9147   12.8066 C.3     1  UNL1        0.0862
     25 N          62.4703   83.0143   13.9324 N.3     1  UNL1       -0.2951
     26 C          62.6643   83.4525   15.3538 C.3     1  UNL1        0.0862
     27 C          63.2731   84.7911   15.6494 C.3     1  UNL1        0.0894
     28 H          62.9891   82.1434   13.8194 H       1  UNL1        0.1233
@<TRIPOS>BOND
     1    13    14   ar
     2    14    15   ar
     3    15    16   ar
     4    16    12    1
     5    12     1    1
     6     1    19    1
     7    19    20    1
     8    20    21    1
     9    21    22    1
    10    22    23    1
    11    23    24    1
    12    24    25    1
    13    25    26    1
    14    26    27    1
    15     2     1    1
    16     2     3    1
    17     3     4    1
    18     4     5    1
    19     5     6    1
    20     6     7   ar
    21     7     8   ar
    22     8     9   ar
    23     9    10   ar
    24    10    11   ar
    25    16    17   ar
    26    17    18   ar
    27    18    13   ar
    28    27    22    1
    29    11     2    1
    30    11     6   ar
    31    25    28    1
@<TRIPOS>MOLECULE
*****
 28 31 0 0 0
SMALL
GASTEIGER

@<TRIPOS>ATOM
      1 N          62.3924   87.3410   11.7835 N.3     1  UNL1       -0.2626
      2 C          62.7880   88.7632   11.5171 C.3     1  UNL1        0.0981
      3 C          62.4402   89.4056   10.2070 C.3     1  UNL1        0.0224
      4 C          62.8357   90.8278    9.9407 C.3     1  UNL1        0.0065
      5 C          63.5790   91.6076   10.9844 C.3     1  UNL1        0.0277
      6 C          63.9268   90.9652   12.2946 C.ar    1  UNL1       -0.0073
      7 C          64.6700   91.7450   13.3383 C.ar    1  UNL1       -0.0015
      8 C          65.0178   91.1026   14.6484 C.ar    1  UNL1        0.0203
      9 C          64.6223   89.6804   14.9147 C.ar    1  UNL1        0.0985
     10 N          63.8790   88.9006   13.8710 N.ar    1  UNL1       -0.2471
     11 C          63.5313   89.5430   12.5609 C.ar    1  UNL1        0.0695
     12 C          61.2077   86.7477   11.0801 C.3     1  UNL1        0.1390
     13 C          61.6616   85.0771    6.9264 C.ar    1  UNL1        0.0413
     14 C          60.3547   85.6754    7.3555 C.ar    1  UNL1        0.1019
     15 N          60.2035   86.2323    8.7401 N.ar    1  UNL1       -0.2277
     16 C          61.3590   86.1908    9.6955 C.ar    1  UNL1        0.1553
     17 N          62.6659   85.5925    9.2665 N.ar    1  UNL1       -0.2277
     18 C          62.8172   85.0356    7.8819 C.ar    1  UNL1        0.1019
     19 C          63.1815   86.5121   12.7531 C.3     1  UNL1        0.0742
     20 C          63.2878   85.0286   12.5586 C.3     1  UNL1        0.0347
     21 C          62.4814   84.0999   13.4173 C.3     1  UNL1        0.0736
     22 N          62.4844   82.6264   13.1367 N.3     1  UNL1       -0.2703
     23 C          62.9637   82.1166   11.8099 C.3     1  UNL1        0.0894
     24 C          62.9668   80.6431   11.5292 C.3     1  UNL1        0.0862
     25 N          62.4906   79.6793   12.5755 N.3     1  UNL1       -0.2951
     26 C          62.0113   80.1892   13.9023 C.3     1  UNL1        0.0862
     27 C          62.0083   81.6627   14.1829 C.3     1  UNL1        0.0894
     28 H          63.2662   79.0451   12.7665 H       1  UNL1        0.1233
@<TRIPOS>BOND
     1    13    14   ar
     2    14    15   ar
     3    15    16   ar
     4    16    12    1
     5    12     1    1
     6     1    19    1
     7    19    20    1
     8    20    21    1
     9    21    22    1
    10    22    23    1
    11    23    24    1
    12    24    25    1
    13    25    26    1
    14    26    27    1
    15     2     1    1
    16     2     3    1
    17     3     4    1
    18     4     5    1
    19     5     6    1
    20     6     7   ar
    21     7     8   ar
    22     8     9   ar
    23     9    10   ar
    24    10    11   ar
    25    16    17   ar
    26    17    18   ar
    27    18    13   ar
    28    27    22    1
    29    11     2    1
    30    11     6   ar
    31    25    28    1
@<TRIPOS>MOLECULE
*****
 28 31 0 0 0
SMALL
GASTEIGER

@<TRIPOS>ATOM
      1 N          63.6313   89.8153   13.4383 N.3     1  UNL1       -0.2626
      2 C          64.5363   90.9467   13.8266 C.3     1  UNL1        0.0981
      3 C          64.9662   91.1071   15.2546 C.3     1  UNL1        0.0224
      4 C          65.8712   92.2386   15.6429 C.3     1  UNL1        0.0065
      5 C          66.3463   93.2097   14.6031 C.3     1  UNL1        0.0277
      6 C          65.9164   93.0493   13.1750 C.ar    1  UNL1       -0.0073
      7 C          66.3915   94.0204   12.1352 C.ar    1  UNL1       -0.0015
      8 C          65.9616   93.8600   10.7071 C.ar    1  UNL1        0.0203
      9 C          65.0566   92.7286   10.3188 C.ar    1  UNL1        0.0985
     10 N          64.5815   91.7575   11.3586 N.ar    1  UNL1       -0.2471
     11 C          65.0114   91.9179   12.7867 C.ar    1  UNL1        0.0695
     12 C          62.2369   90.0992   12.9635 C.3     1  UNL1        0.1390
     13 C          60.6610   88.0695    9.2694 C.ar    1  UNL1        0.0413
     14 C          61.3334   87.2620   10.3398 C.ar    1  UNL1        0.1019
     15 N          61.8587   87.9386   11.5712 N.ar    1  UNL1       -0.2277
     16 C          61.7116   89.4226   11.7321 C.ar    1  UNL1        0.1553
     17 N          61.0392   90.2302   10.6617 N.ar    1  UNL1       -0.2277
     18 C          60.5139   89.5536    9.4303 C.ar    1  UNL1        0.1019
     19 C          64.1205   88.4000   13.5248 C.3     1  UNL1        0.0742
     20 C          64.2071   87.7164   14.8571 C.3     1  UNL1        0.0347
     21 C          64.9236   86.4045   14.9819 C.3     1  UNL1        0.0736
     22 N          64.1918   85.1221   14.7173 N.3     1  UNL1       -0.2703
     23 C          62.9641   84.7821   15.5092 C.3     1  UNL1        0.0894
     24 C          62.2323   83.4997   15.2446 C.3     1  UNL1        0.0862
     25 N          62.7282   82.5574   14.1881 N.3     1  UNL1       -0.2951
     26 C          63.9559   82.8975   13.3962 C.3     1  UNL1        0.0862
     27 C          64.6877   84.1798   13.6608 C.3     1  UNL1        0.0894
     28 H          61.9684   82.4405   13.5176 H       1  UNL1        0.1233
@<TRIPOS>BOND
     1    13    14   ar
     2    14    15   ar
     3    15    16   ar
     4    16    12    1
     5    12     1    1
     6     1    19    1
     7    19    20    1
     8    20    21    1
     9    21    22    1
    10    22    23    1
    11    23    24    1
    12    24    25    1
    13    25    26    1
    14    26    27    1
    15     2     1    1
    16     2     3    1
    17     3     4    1
    18     4     5    1
    19     5     6    1
    20     6     7   ar
    21     7     8   ar
    22     8     9   ar
    23     9    10   ar
    24    10    11   ar
    25    16    17   ar
    26    17    18   ar
    27    18    13   ar
    28    27    22    1
    29    11     2    1
    30    11     6   ar
    31    25    28    1
