@<TRIPOS>MOLECULE
*****
 43 48 0 0 0
SMALL
GASTEIGER

@<TRIPOS>ATOM
      1 N          71.9708   72.7839   13.3022 N.am    1  UNL1       -0.2222
      2 C          72.1910   73.8201   12.2401 C.2     1  UNL1        0.3219
      3 O          72.6012   73.5556   10.8218 O.2     1  UNL1       -0.2512
      4 N          71.9289   75.1673   12.8455 N.am    1  UNL1       -0.1907
      5 C          71.5467   74.9637   14.2817 C.2     1  UNL1        0.2529
      6 O          71.1996   76.0434   15.2633 O.2     1  UNL1       -0.2724
      7 C          71.5727   73.4906   14.5640 C.3     1  UNL1        0.1391
      8 C          71.6414   71.9981   14.6963 C.3     1  UNL1        0.0449
      9 C          71.3247   71.3463   16.0097 C.3     1  UNL1        0.0746
     10 N          70.9394   72.1871   17.1906 N.3     1  UNL1       -0.2676
     11 C          70.8707   73.6796   17.0582 C.3     1  UNL1        0.0746
     12 C          71.1874   74.3314   15.7449 C.3     1  UNL1        0.0449
     13 C          71.0660   68.9653   12.7111 C.ar    1  UNL1        0.2293
     14 C          70.9145   70.4479   12.8810 C.ar    1  UNL1        0.0924
     15 C          72.1223   71.3012   13.1323 C.ar    1  UNL1        0.1453
     16 N          73.4815   70.6719   13.2137 N.ar    1  UNL1       -0.2084
     17 C          73.6330   69.1894   13.0438 C.ar    1  UNL1        0.2027
     18 N          72.4252   68.3360   12.7925 N.ar    1  UNL1       -0.1892
     19 C          68.5021   68.7441   12.3542 C.3     1  UNL1        0.2542
     20 O          69.8583   68.1119   12.4598 O.3     1  UNL1       -0.4560
     21 C          72.0309   76.4864   12.1389 C.ar    1  UNL1        0.0622
     22 C          73.3222   76.8933   11.4930 C.ar    1  UNL1        0.0154
     23 C          73.4242   78.2124   10.7863 C.ar    1  UNL1        0.0013
     24 C          72.2351   79.1247   10.7255 C.ar    1  UNL1        0.0001
     25 C          70.9438   78.7178   11.3714 C.ar    1  UNL1        0.0013
     26 C          70.8418   77.3986   12.0781 C.ar    1  UNL1        0.0154
     27 C          72.3372   80.4439   10.0188 C.ar    1  UNL1        0.0000
     28 C          72.7151   81.6774   10.7840 C.ar    1  UNL1        0.0000
     29 C          72.8172   82.9966   10.0774 C.ar    1  UNL1        0.0000
     30 C          72.5413   83.0821    8.6054 C.ar    1  UNL1        0.0011
     31 C          72.1634   81.8486    7.8402 C.ar    1  UNL1        0.0140
     32 C          72.0613   80.5295    8.5468 C.ar    1  UNL1        0.0011
     33 C          71.8876   81.9342    6.3683 C.2     1  UNL1        0.0729
     34 O          71.6312   80.6845    5.5793 O.co2   1  UNL1       -0.5446
     35 O          71.8681   83.2696    5.6853 O.co2   1  UNL1       -0.5446
     36 C          70.6228   71.5352   18.5040 C.3     1  UNL1        0.1183
     37 C          70.5814   70.0395   18.6083 C.ar    1  UNL1        0.0712
     38 N          69.4844   69.3718   19.3833 N.ar    1  UNL1       -0.2471
     39 C          69.4430   67.8759   19.4876 C.ar    1  UNL1        0.0985
     40 C          70.4985   67.0479   18.8167 C.ar    1  UNL1        0.0203
     41 C          71.5955   67.7156   18.0416 C.ar    1  UNL1       -0.0015
     42 C          71.6369   69.2113   17.9374 C.ar    1  UNL1       -0.0069
     43 C          72.7339   69.8791   17.1623 C.3     1  UNL1        0.0323
@<TRIPOS>UNITY_ATOM_ATTR
34 1
charge -1
@<TRIPOS>BOND
     1    19    20    1
     2    20    13    1
     3    13    14   ar
     4    14    15   ar
     5    15     1    1
     6     1     2   am
     7     2     3    2
     8     2     4   am
     9     4    21    1
    10    21    22   ar
    11    22    23   ar
    12    23    24   ar
    13    24    27    1
    14    27    28   ar
    15    28    29   ar
    16    29    30   ar
    17    30    31   ar
    18    31    33    1
    19    33    34   ar
    20    33    35   ar
    21    31    32   ar
    22    24    25   ar
    23    25    26   ar
    24     4     5   am
    25     5     6    2
    26     5     7    1
    27     7     8    1
    28     8     9    1
    29     9    10    1
    30    10    36    1
    31    36    37    1
    32    37    38   ar
    33    38    39   ar
    34    39    40   ar
    35    40    41   ar
    36    41    42   ar
    37    42    43    1
    38    10    11    1
    39    11    12    1
    40    15    16   ar
    41    16    17   ar
    42    17    18   ar
    43    18    13   ar
    44     7     1    1
    45    42    37   ar
    46    26    21   ar
    47    12     7    1
    48    32    27   ar
@<TRIPOS>MOLECULE
*****
 43 48 0 0 0
SMALL
GASTEIGER

@<TRIPOS>ATOM
      1 N          62.4501   87.2603   11.5097 N.am    1  UNL1       -0.2222
      2 C          62.2540   85.9216   10.8618 C.2     1  UNL1        0.3219
      3 O          61.5154   85.6611    9.5825 O.2     1  UNL1       -0.2512
      4 N          62.9261   84.8894   11.7178 N.am    1  UNL1       -0.1907
      5 C          63.5376   85.5900   12.8948 C.2     1  UNL1        0.2529
      6 O          64.3080   84.9396   14.0053 O.2     1  UNL1       -0.2724
      7 C          63.2434   87.0553   12.7662 C.3     1  UNL1        0.1391
      8 C          62.8737   88.4852   12.5045 C.3     1  UNL1        0.0449
      9 C          63.2983   89.5573   13.4639 C.3     1  UNL1        0.0746
     10 N          64.0926   89.1994   14.6849 N.3     1  UNL1       -0.2676
     11 C          64.4624   87.7694   14.9466 C.3     1  UNL1        0.0746
     12 C          64.0378   86.6974   13.9872 C.3     1  UNL1        0.0449
     13 C          62.4015   90.9692   10.0988 C.ar    1  UNL1        0.2293
     14 C          62.9095   89.6563   10.6164 C.ar    1  UNL1        0.0924
     15 C          61.9421   88.5733   10.9921 C.ar    1  UNL1        0.1453
     16 N          60.4666   88.8032   10.8500 N.ar    1  UNL1       -0.2084
     17 C          59.9586   90.1161   10.3324 C.ar    1  UNL1        0.2027
     18 N          60.9261   91.1992    9.9567 N.ar    1  UNL1       -0.1892
     19 C          64.5929   92.2871   10.5578 C.3     1  UNL1        0.2542
     20 O          63.3689   92.0523    9.7231 O.3     1  UNL1       -0.4560
     21 C          62.9777   83.4154   11.4449 C.ar    1  UNL1        0.0622
     22 C          62.3758   82.4501   12.4225 C.ar    1  UNL1        0.0154
     23 C          62.4273   80.9760   12.1495 C.ar    1  UNL1        0.0013
     24 C          63.0808   80.4673   10.8989 C.ar    1  UNL1        0.0001
     25 C          63.6827   81.4326    9.9211 C.ar    1  UNL1        0.0013
     26 C          63.6311   82.9067   10.1942 C.ar    1  UNL1        0.0154
     27 C          63.1323   78.9932   10.6258 C.ar    1  UNL1        0.0000
     28 C          62.2699   78.0536   11.4153 C.ar    1  UNL1        0.0000
     29 C          62.3215   76.5796   11.1423 C.ar    1  UNL1        0.0000
     30 C          63.2355   76.0452   10.0798 C.ar    1  UNL1        0.0011
     31 C          64.0980   76.9848    9.2903 C.ar    1  UNL1        0.0140
     32 C          64.0464   78.4588    9.5633 C.ar    1  UNL1        0.0011
     33 C          65.0120   76.4503    8.2278 C.2     1  UNL1        0.0729
     34 O          65.5824   77.3757    7.1943 O.co2   1  UNL1       -0.5446
     35 O          65.3556   74.9905    8.1989 O.co2   1  UNL1       -0.5446
     36 C          64.5172   90.2715   15.6443 C.3     1  UNL1        0.1183
     37 C          65.6196   91.2178   15.2715 C.ar    1  UNL1        0.0712
     38 N          66.4860   90.9287   14.0816 N.ar    1  UNL1       -0.2471
     39 C          67.5884   91.8751   13.7088 C.ar    1  UNL1        0.0985
     40 C          67.8246   93.1106   14.5260 C.ar    1  UNL1        0.0203
     41 C          66.9583   93.3998   15.7159 C.ar    1  UNL1       -0.0015
     42 C          65.8558   92.4534   16.0887 C.ar    1  UNL1       -0.0069
     43 C          64.9895   92.7426   17.2786 C.3     1  UNL1        0.0323
@<TRIPOS>UNITY_ATOM_ATTR
34 1
charge -1
@<TRIPOS>BOND
     1    19    20    1
     2    20    13    1
     3    13    14   ar
     4    14    15   ar
     5    15     1    1
     6     1     2   am
     7     2     3    2
     8     2     4   am
     9     4    21    1
    10    21    22   ar
    11    22    23   ar
    12    23    24   ar
    13    24    27    1
    14    27    28   ar
    15    28    29   ar
    16    29    30   ar
    17    30    31   ar
    18    31    33    1
    19    33    34   ar
    20    33    35   ar
    21    31    32   ar
    22    24    25   ar
    23    25    26   ar
    24     4     5   am
    25     5     6    2
    26     5     7    1
    27     7     8    1
    28     8     9    1
    29     9    10    1
    30    10    36    1
    31    36    37    1
    32    37    38   ar
    33    38    39   ar
    34    39    40   ar
    35    40    41   ar
    36    41    42   ar
    37    42    43    1
    38    10    11    1
    39    11    12    1
    40    15    16   ar
    41    16    17   ar
    42    17    18   ar
    43    18    13   ar
    44     7     1    1
    45    42    37   ar
    46    26    21   ar
    47    12     7    1
    48    32    27   ar
@<TRIPOS>MOLECULE
*****
 43 48 0 0 0
SMALL
GASTEIGER

@<TRIPOS>ATOM
      1 N          60.2974   88.8794   10.3626 N.am    1  UNL1       -0.2222
      2 C          59.9504   89.9655    9.3879 C.2     1  UNL1        0.3219
      3 O          59.4152   91.3233    9.7345 O.2     1  UNL1       -0.2512
      4 N          60.2325   89.4555    8.0057 N.am    1  UNL1       -0.1907
      5 C          60.7539   88.0542    8.1262 C.2     1  UNL1        0.2529
      6 O          61.1633   87.1650    6.9897 O.2     1  UNL1       -0.2724
      7 C          60.7940   87.6981    9.5828 C.3     1  UNL1        0.1391
      8 C          60.7779   87.4859   11.0676 C.3     1  UNL1        0.0449
      9 C          61.2344   86.1782   11.6433 C.3     1  UNL1        0.0746
     10 N          61.7070   85.0827   10.7342 N.3     1  UNL1       -0.2676
     11 C          61.7231   85.2949    9.2494 C.3     1  UNL1        0.0746
     12 C          61.2666   86.6026    8.6737 C.3     1  UNL1        0.0449
     13 C          61.2253   89.4384   14.1805 C.ar    1  UNL1        0.2293
     14 C          61.3526   89.3575   12.6881 C.ar    1  UNL1        0.0924
     15 C          60.1701   88.9603   11.8550 C.ar    1  UNL1        0.1453
     16 N          58.8604   88.6440   12.5143 N.ar    1  UNL1       -0.2084
     17 C          58.7331   88.7250   14.0066 C.ar    1  UNL1        0.2027
     18 N          59.9156   89.1222   14.8398 N.ar    1  UNL1       -0.1892
     19 C          63.5577   90.5646   14.3842 C.3     1  UNL1        0.2542
     20 O          62.4077   89.8356   15.0136 O.3     1  UNL1       -0.4560
     21 C          60.0290   90.2136    6.7276 C.ar    1  UNL1        0.0622
     22 C          58.6419   90.5582    6.2727 C.ar    1  UNL1        0.0154
     23 C          58.4384   91.3164    4.9945 C.ar    1  UNL1        0.0013
     24 C          59.6221   91.7300    4.1712 C.ar    1  UNL1        0.0001
     25 C          61.0093   91.3855    4.6262 C.ar    1  UNL1        0.0013
     26 C          61.2127   90.6273    5.9044 C.ar    1  UNL1        0.0154
     27 C          59.4186   92.4882    2.8930 C.ar    1  UNL1        0.0000
     28 C          58.3777   92.0378    1.9114 C.ar    1  UNL1        0.0000
     29 C          58.1742   92.7960    0.6332 C.ar    1  UNL1        0.0000
     30 C          59.0117   94.0046    0.3368 C.ar    1  UNL1        0.0011
     31 C          60.0526   94.4551    1.3184 C.ar    1  UNL1        0.0140
     32 C          60.2560   93.6969    2.5965 C.ar    1  UNL1        0.0011
     33 C          60.8900   95.6637    1.0218 C.2     1  UNL1        0.0729
     34 O          61.6462   95.7534   -0.2705 O.co2   1  UNL1       -0.5446
     35 O          60.9712   96.7826    2.0176 O.co2   1  UNL1       -0.5446
     36 C          62.1635   83.7749   11.3100 C.3     1  UNL1        0.1183
     37 C          62.8665   83.7433   12.6347 C.ar    1  UNL1        0.0712
     38 N          63.7835   84.8646   13.0241 N.ar    1  UNL1       -0.2471
     39 C          64.4864   84.8329   14.3489 C.ar    1  UNL1        0.0985
     40 C          64.2723   83.6799   15.2841 C.ar    1  UNL1        0.0203
     41 C          63.3553   82.5586   14.8947 C.ar    1  UNL1       -0.0015
     42 C          62.6524   82.5902   13.5700 C.ar    1  UNL1       -0.0069
     43 C          61.7353   81.4689   13.1806 C.3     1  UNL1        0.0323
@<TRIPOS>UNITY_ATOM_ATTR
34 1
charge -1
@<TRIPOS>BOND
     1    19    20    1
     2    20    13    1
     3    13    14   ar
     4    14    15   ar
     5    15     1    1
     6     1     2   am
     7     2     3    2
     8     2     4   am
     9     4    21    1
    10    21    22   ar
    11    22    23   ar
    12    23    24   ar
    13    24    27    1
    14    27    28   ar
    15    28    29   ar
    16    29    30   ar
    17    30    31   ar
    18    31    33    1
    19    33    34   ar
    20    33    35   ar
    21    31    32   ar
    22    24    25   ar
    23    25    26   ar
    24     4     5   am
    25     5     6    2
    26     5     7    1
    27     7     8    1
    28     8     9    1
    29     9    10    1
    30    10    36    1
    31    36    37    1
    32    37    38   ar
    33    38    39   ar
    34    39    40   ar
    35    40    41   ar
    36    41    42   ar
    37    42    43    1
    38    10    11    1
    39    11    12    1
    40    15    16   ar
    41    16    17   ar
    42    17    18   ar
    43    18    13   ar
    44     7     1    1
    45    42    37   ar
    46    26    21   ar
    47    12     7    1
    48    32    27   ar
