@<TRIPOS>MOLECULE
*****
 35 39 0 0 0
SMALL
GASTEIGER

@<TRIPOS>ATOM
      1 C          63.1417   89.6311   12.6386 C.2     1  UNL1        0.0650
      2 N          63.9068   90.1678   13.8119 N.2     1  UNL1       -0.1565
      3 N          64.5048   89.0048   14.5466 N.2     1  UNL1       -0.1479
      4 C          64.1092   87.7493   13.8275 C.2     1  UNL1        0.1409
      5 C          63.2668   88.1364   12.6483 C.3     1  UNL1        0.1071
      6 C          62.8713   86.8808   11.9291 C.3     1  UNL1        0.1164
      7 N          63.4692   85.7177   12.6639 N.am    1  UNL1       -0.2510
      8 C          64.2344   86.2546   13.8372 C.2     1  UNL1        0.2687
      9 O          64.9916   85.4396   14.8434 O.2     1  UNL1       -0.2682
     10 C          62.0261   86.8021   10.6924 C.ar    1  UNL1        0.0308
     11 C          62.5834   86.1912    9.4409 C.ar    1  UNL1        0.0004
     12 C          61.7381   86.1124    8.2041 C.ar    1  UNL1       -0.0001
     13 C          60.3358   86.6446    8.2189 C.ar    1  UNL1        0.0031
     14 C          59.7786   87.2555    9.4704 C.ar    1  UNL1        0.0366
     15 C          60.6238   87.3342   10.7072 C.ar    1  UNL1        0.1366
     16 O          60.0666   87.9451   11.9587 O.3     1  UNL1       -0.4697
     17 C          58.7244   88.6145   11.9334 C.3     1  UNL1        0.2468
     18 C          57.8531   88.5942   13.1542 C.2     1  UNL1        0.0940
     19 O          56.3590   88.4684   13.1951 O.co2   1  UNL1       -0.5454
     20 O          58.4693   88.7073   14.5172 O.co2   1  UNL1       -0.5454
     21 C          63.3270   84.2719   12.2909 C.ar    1  UNL1        0.0544
     22 C          62.4644   83.3653   13.1179 C.ar    1  UNL1        0.0150
     23 C          62.3222   81.9194   12.7449 C.ar    1  UNL1        0.0029
     24 C          63.0427   81.3800   11.5449 C.ar    1  UNL1        0.0210
     25 C          63.9053   82.2867   10.7178 C.ar    1  UNL1        0.0029
     26 C          64.0475   83.7325   11.0908 C.ar    1  UNL1        0.0150
     27 C          62.9005   79.9341   11.1719 C.ar    1  UNL1        0.1231
     28 C          63.0314   79.3628    9.7911 C.ar    1  UNL1        0.0658
     29 C          62.8143   77.8813    9.8801 C.ar    1  UNL1        0.2138
     30 O          62.5492   77.5370   11.3158 O.2     1  UNL1       -0.3502
     31 N          62.6025   78.8057   12.1142 N.ar    1  UNL1       -0.0768
     32 C          61.6776   90.5719   11.9788 C.3     1  UNL1        0.0057
     33 C          62.3844   90.4460   11.6324 C.3     1  UNL1        0.0338
     34 C          63.6499   90.3060   10.8393 C.3     1  UNL1        0.0057
     35 C          61.6272   91.2609   10.6262 C.3     1  UNL1        0.0057
@<TRIPOS>UNITY_ATOM_ATTR
19 1
charge -1
@<TRIPOS>BOND
     1    32    33    1
     2    33    34    1
     3    33    35    1
     4    33     1    1
     5     1     2    2
     6     2     3    1
     7     3     4    2
     8     4     5    1
     9     5     6    1
    10     6    10    1
    11    10    11   ar
    12    11    12   ar
    13    12    13   ar
    14    13    14   ar
    15    14    15   ar
    16    15    16    1
    17    16    17    1
    18    17    18    1
    19    18    19   ar
    20    18    20   ar
    21     6     7    1
    22     7    21    1
    23    21    22   ar
    24    22    23   ar
    25    23    24   ar
    26    24    27    1
    27    27    28   ar
    28    28    29   ar
    29    29    30   ar
    30    30    31   ar
    31    24    25   ar
    32    25    26   ar
    33     7     8   am
    34     8     9    2
    35     5     1    1
    36    15    10   ar
    37    26    21   ar
    38     8     4    1
    39    31    27   ar
@<TRIPOS>MOLECULE
*****
 35 39 0 0 0
SMALL
GASTEIGER

@<TRIPOS>ATOM
      1 C          63.8878   90.5518   12.2248 C.2     1  UNL1        0.0650
      2 N          64.7183   91.2772   13.2417 N.2     1  UNL1       -0.1565
      3 N          65.0528   90.3125   14.3405 N.2     1  UNL1       -0.1479
      4 C          64.4290   88.9908   14.0027 C.2     1  UNL1        0.1409
      5 C          63.7090   89.1388   12.6952 C.3     1  UNL1        0.1071
      6 C          63.0852   87.8171   12.3574 C.3     1  UNL1        0.1164
      7 N          63.4196   86.8523   13.4562 N.am    1  UNL1       -0.2510
      8 C          64.2502   87.5778   14.4731 C.2     1  UNL1        0.2687
      9 O          64.8045   86.9928   15.7382 O.2     1  UNL1       -0.2682
     10 C          62.2701   87.5134   11.1354 C.ar    1  UNL1        0.0308
     11 C          62.8513   86.6757   10.0352 C.ar    1  UNL1        0.0004
     12 C          62.0361   86.3720    8.8131 C.ar    1  UNL1       -0.0001
     13 C          60.6397   86.9062    8.6913 C.ar    1  UNL1        0.0031
     14 C          60.0585   87.7439    9.7915 C.ar    1  UNL1        0.0366
     15 C          60.8737   88.0476   11.0135 C.ar    1  UNL1        0.1366
     16 O          60.2925   88.8853   12.1137 O.3     1  UNL1       -0.4697
     17 C          58.8203   89.1720   12.1402 C.3     1  UNL1        0.2468
     18 C          57.9880   88.7145   13.3012 C.2     1  UNL1        0.0940
     19 O          56.5337   88.3478   13.2806 O.co2   1  UNL1       -0.5454
     20 O          58.6059   88.5848   14.6620 O.co2   1  UNL1       -0.5454
     21 C          62.9977   85.4146   13.5259 C.ar    1  UNL1        0.0544
     22 C          63.0874   84.5466   12.3059 C.ar    1  UNL1        0.0150
     23 C          62.6654   83.1089   12.3755 C.ar    1  UNL1        0.0029
     24 C          62.1538   82.5391   13.6653 C.ar    1  UNL1        0.0210
     25 C          62.0641   83.4071   14.8855 C.ar    1  UNL1        0.0029
     26 C          62.4860   84.8448   14.8158 C.ar    1  UNL1        0.0150
     27 C          61.7318   81.1014   13.7351 C.ar    1  UNL1        0.1231
     28 C          62.5505   79.9204   13.3051 C.ar    1  UNL1        0.0658
     29 C          61.7417   78.6813   13.5513 C.ar    1  UNL1        0.2138
     30 O          60.4231   79.0966   14.1335 O.2     1  UNL1       -0.3502
     31 N          60.4170   80.5923   14.2471 N.ar    1  UNL1       -0.0768
     32 C          62.6115   90.8050   10.8939 C.3     1  UNL1        0.0057
     33 C          63.3334   91.1368   10.9597 C.3     1  UNL1        0.0338
     34 C          64.6533   91.8487   10.9273 C.3     1  UNL1        0.0057
     35 C          62.7791   91.7217    9.6945 C.3     1  UNL1        0.0057
@<TRIPOS>UNITY_ATOM_ATTR
19 1
charge -1
@<TRIPOS>BOND
     1    32    33    1
     2    33    34    1
     3    33    35    1
     4    33     1    1
     5     1     2    2
     6     2     3    1
     7     3     4    2
     8     4     5    1
     9     5     6    1
    10     6    10    1
    11    10    11   ar
    12    11    12   ar
    13    12    13   ar
    14    13    14   ar
    15    14    15   ar
    16    15    16    1
    17    16    17    1
    18    17    18    1
    19    18    19   ar
    20    18    20   ar
    21     6     7    1
    22     7    21    1
    23    21    22   ar
    24    22    23   ar
    25    23    24   ar
    26    24    27    1
    27    27    28   ar
    28    28    29   ar
    29    29    30   ar
    30    30    31   ar
    31    24    25   ar
    32    25    26   ar
    33     7     8   am
    34     8     9    2
    35     5     1    1
    36    15    10   ar
    37    26    21   ar
    38     8     4    1
    39    31    27   ar
@<TRIPOS>MOLECULE
*****
 35 39 0 0 0
SMALL
GASTEIGER

@<TRIPOS>ATOM
      1 C          62.3896   82.6041   14.1264 C.2     1  UNL1        0.0650
      2 N          62.2780   82.1735   15.5589 N.2     1  UNL1       -0.1565
      3 N          62.5933   83.3572   16.4247 N.2     1  UNL1       -0.1479
      4 C          62.8997   84.5194   15.5272 C.2     1  UNL1        0.1409
      5 C          62.7738   84.0539   14.1068 C.3     1  UNL1        0.1071
      6 C          63.0802   85.2161   13.2094 C.3     1  UNL1        0.1164
      7 N          63.3955   86.3999   14.0751 N.am    1  UNL1       -0.2510
      8 C          63.2839   85.9692   15.5077 C.2     1  UNL1        0.2687
      9 O          63.5158   86.8362   16.7096 O.2     1  UNL1       -0.2682
     10 C          63.0727   85.1979   11.7095 C.ar    1  UNL1        0.0308
     11 C          64.1013   84.4002   10.9640 C.ar    1  UNL1        0.0004
     12 C          64.0937   84.3820    9.4640 C.ar    1  UNL1       -0.0001
     13 C          63.0576   85.1614    8.7097 C.ar    1  UNL1        0.0031
     14 C          62.0290   85.9590    9.4552 C.ar    1  UNL1        0.0366
     15 C          62.0366   85.9773   10.9552 C.ar    1  UNL1        0.1366
     16 O          61.0080   86.7749   11.7007 O.3     1  UNL1       -0.4697
     17 C          60.1496   87.7632   10.9681 C.3     1  UNL1        0.2468
     18 C          59.7300   89.0362   11.6415 C.2     1  UNL1        0.0940
     19 O          59.9537   90.4348   11.1479 O.co2   1  UNL1       -0.5454
     20 O          59.0038   88.9866   12.9531 O.co2   1  UNL1       -0.5454
     21 C          63.7585   87.7730   13.5930 C.ar    1  UNL1        0.0544
     22 C          63.2448   88.2644   12.2721 C.ar    1  UNL1        0.0150
     23 C          63.6079   89.6376   11.7899 C.ar    1  UNL1        0.0029
     24 C          64.4847   90.5195   12.6287 C.ar    1  UNL1        0.0210
     25 C          64.9984   90.0281   13.9496 C.ar    1  UNL1        0.0029
     26 C          64.6353   88.6550   14.4317 C.ar    1  UNL1        0.0150
     27 C          64.8478   91.8927   12.1466 C.ar    1  UNL1        0.1231
     28 C          64.7027   92.4013   10.7429 C.ar    1  UNL1        0.0658
     29 C          65.1850   93.8214   10.7124 C.ar    1  UNL1        0.2138
     30 O          65.6281   94.1904   12.0971 O.2     1  UNL1       -0.3502
     31 N          65.4196   92.9984   12.9835 N.ar    1  UNL1       -0.0768
     32 C          62.6424   82.0423   12.3701 C.3     1  UNL1        0.0057
     33 C          62.1577   81.7371   12.9245 C.3     1  UNL1        0.0338
     34 C          61.1955   81.0408   13.8407 C.3     1  UNL1        0.0057
     35 C          61.9258   80.8701   11.7226 C.3     1  UNL1        0.0057
@<TRIPOS>UNITY_ATOM_ATTR
19 1
charge -1
@<TRIPOS>BOND
     1    32    33    1
     2    33    34    1
     3    33    35    1
     4    33     1    1
     5     1     2    2
     6     2     3    1
     7     3     4    2
     8     4     5    1
     9     5     6    1
    10     6    10    1
    11    10    11   ar
    12    11    12   ar
    13    12    13   ar
    14    13    14   ar
    15    14    15   ar
    16    15    16    1
    17    16    17    1
    18    17    18    1
    19    18    19   ar
    20    18    20   ar
    21     6     7    1
    22     7    21    1
    23    21    22   ar
    24    22    23   ar
    25    23    24   ar
    26    24    27    1
    27    27    28   ar
    28    28    29   ar
    29    29    30   ar
    30    30    31   ar
    31    24    25   ar
    32    25    26   ar
    33     7     8   am
    34     8     9    2
    35     5     1    1
    36    15    10   ar
    37    26    21   ar
    38     8     4    1
    39    31    27   ar
@<TRIPOS>MOLECULE
*****
 35 39 0 0 0
SMALL
GASTEIGER

@<TRIPOS>ATOM
      1 C          60.6914   95.4087   -6.5815 C.2     1  UNL1        0.0650
      2 N          59.5389   95.1515   -7.5065 N.2     1  UNL1       -0.1565
      3 N          58.4753   94.4304   -6.7326 N.2     1  UNL1       -0.1479
      4 C          58.9706   94.2418   -5.3293 C.2     1  UNL1        0.1409
      5 C          60.3401   94.8464   -5.2360 C.3     1  UNL1        0.1071
      6 C          60.8353   94.6578   -3.8327 C.3     1  UNL1        0.1164
      7 N          59.7718   93.9366   -3.0587 N.am    1  UNL1       -0.2510
      8 C          58.6193   93.6795   -3.9838 C.2     1  UNL1        0.2687
      9 O          57.3401   92.9825   -3.6261 O.2     1  UNL1       -0.2682
     10 C          62.1612   95.1108   -3.2972 C.ar    1  UNL1        0.0308
     11 C          62.2630   96.4019   -2.5404 C.ar    1  UNL1        0.0004
     12 C          63.5890   96.8549   -2.0050 C.ar    1  UNL1       -0.0001
     13 C          64.8132   96.0169   -2.2263 C.ar    1  UNL1        0.0031
     14 C          64.7114   94.7258   -2.9832 C.ar    1  UNL1        0.0366
     15 C          63.3854   94.2728   -3.5186 C.ar    1  UNL1        0.1366
     16 O          63.2837   92.9817   -4.2754 O.3     1  UNL1       -0.4697
     17 C          64.5286   92.2447   -4.6720 C.3     1  UNL1        0.2468
     18 C          65.0835   92.4009   -6.0568 C.2     1  UNL1        0.0940
     19 O          66.1806   93.3273   -6.4905 O.co2   1  UNL1       -0.5454
     20 O          64.5333   91.5762   -7.1826 O.co2   1  UNL1       -0.5454
     21 C          59.8475   93.5419   -1.6137 C.ar    1  UNL1        0.0544
     22 C          60.9882   92.6992   -1.1251 C.ar    1  UNL1        0.0150
     23 C          61.0639   92.3044    0.3200 C.ar    1  UNL1        0.0029
     24 C          59.9989   92.7524    1.2766 C.ar    1  UNL1        0.0210
     25 C          58.8582   93.5952    0.7881 C.ar    1  UNL1        0.0029
     26 C          58.7825   93.9899   -0.6570 C.ar    1  UNL1        0.0150
     27 C          60.0746   92.3577    2.7218 C.ar    1  UNL1        0.1231
     28 C          61.2945   91.8559    3.4360 C.ar    1  UNL1        0.0658
     29 C          60.9174   91.5835    4.8621 C.ar    1  UNL1        0.2138
     30 O          59.4645   91.9170    5.0292 O.2     1  UNL1       -0.3502
     31 N          58.9436   92.3955    3.7064 N.ar    1  UNL1       -0.0768
     32 C          61.8808   96.8391   -6.6399 C.3     1  UNL1        0.0057
     33 C          61.9705   96.1057   -6.9392 C.3     1  UNL1        0.0338
     34 C          62.3039   94.7816   -7.5602 C.3     1  UNL1        0.0057
     35 C          63.2497   96.8027   -7.2970 C.3     1  UNL1        0.0057
@<TRIPOS>UNITY_ATOM_ATTR
19 1
charge -1
@<TRIPOS>BOND
     1    32    33    1
     2    33    34    1
     3    33    35    1
     4    33     1    1
     5     1     2    2
     6     2     3    1
     7     3     4    2
     8     4     5    1
     9     5     6    1
    10     6    10    1
    11    10    11   ar
    12    11    12   ar
    13    12    13   ar
    14    13    14   ar
    15    14    15   ar
    16    15    16    1
    17    16    17    1
    18    17    18    1
    19    18    19   ar
    20    18    20   ar
    21     6     7    1
    22     7    21    1
    23    21    22   ar
    24    22    23   ar
    25    23    24   ar
    26    24    27    1
    27    27    28   ar
    28    28    29   ar
    29    29    30   ar
    30    30    31   ar
    31    24    25   ar
    32    25    26   ar
    33     7     8   am
    34     8     9    2
    35     5     1    1
    36    15    10   ar
    37    26    21   ar
    38     8     4    1
    39    31    27   ar
