@<TRIPOS>MOLECULE
*****
 31 33 0 0 0
SMALL
GASTEIGER

@<TRIPOS>ATOM
      1 C          61.2010   88.8007   10.9536 C.ar    1  UNL1        0.1386
      2 C          61.4437   89.7513    9.8190 C.ar    1  UNL1        0.0369
      3 C          62.5354   90.7751    9.9188 C.ar    1  UNL1        0.0031
      4 C          63.3844   90.8483   11.1532 C.ar    1  UNL1       -0.0001
      5 C          64.4762   91.8721   11.2529 C.ar    1  UNL1       -0.0024
      6 C          65.3252   91.9453   12.4873 C.ar    1  UNL1       -0.0004
      7 C          65.0825   90.9946   13.6220 C.ar    1  UNL1       -0.0024
      8 C          63.9908   89.9708   13.5222 C.ar    1  UNL1       -0.0002
      9 C          63.1417   89.8977   12.2878 C.ar    1  UNL1        0.0030
     10 C          62.0500   88.8739   12.1880 C.ar    1  UNL1        0.0369
     11 O          60.1092   87.7769   10.8538 O.3     1  UNL1       -0.4750
     12 C          59.6343   87.3157    9.5078 C.3     1  UNL1        0.2138
     13 C          60.5243   86.4672    8.6487 C.3     1  UNL1        0.1090
     14 C          59.7702   86.9102    7.4301 C.3     1  UNL1        0.0129
     15 C          61.2784   86.0243    9.8674 C.3     1  UNL1        0.0129
     16 C          61.7604   84.1344    5.6857 C.3     1  UNL1        0.1107
     17 N          60.8705   84.9828    6.5448 N.am    1  UNL1       -0.3026
     18 C          61.4143   85.6188    7.7896 C.2     1  UNL1        0.2251
     19 O          62.8482   85.4063    8.1755 O.2     1  UNL1       -0.2750
     20 H          59.9294   85.1223    6.2916 H       1  UNL1        0.1495
     21 C          66.4169   92.9691   12.5871 C.3     1  UNL1        0.1240
     22 N          67.2544   93.0539   13.8287 N.ar    1  UNL1       -0.3045
     23 C          68.5237   92.2984   14.0893 C.ar    1  UNL1        0.0983
     24 C          69.0234   92.6867   15.4492 C.ar    1  UNL1        0.1193
     25 N          68.0628   93.6822   16.0292 N.ar    1  UNL1       -0.2223
     26 C          66.9695   93.9091   15.0276 C.ar    1  UNL1        0.1788
     27 C          66.6712   93.9081   11.4453 C.3     1  UNL1        0.0827
     28 C          66.0583   95.2771   11.4494 C.3     1  UNL1        0.0197
     29 N          67.5384   93.4780   10.2995 N.3     1  UNL1       -0.2696
     30 C          67.7491   94.3965    9.1323 C.3     1  UNL1        0.0897
     31 C          68.1950   92.1295   10.3207 C.3     1  UNL1        0.0897
@<TRIPOS>BOND
     1    16    17    1
     2    17    18   am
     3    18    19    2
     4    18    13    1
     5    13    14    1
     6    13    15    1
     7    13    12    1
     8    12    11    1
     9    11     1    1
    10     1     2   ar
    11     2     3   ar
    12     3     4   ar
    13     4     5   ar
    14     5     6   ar
    15     6    21    1
    16    21    27    1
    17    27    28    1
    18    27    29    1
    19    29    30    1
    20    29    31    1
    21    21    22    1
    22    22    23   ar
    23    23    24   ar
    24    24    25   ar
    25    25    26   ar
    26     6     7   ar
    27     7     8   ar
    28     8     9   ar
    29     9    10   ar
    30    10     1   ar
    31     9     4   ar
    32    26    22   ar
    33    17    20    1
@<TRIPOS>MOLECULE
*****
 31 33 0 0 0
SMALL
GASTEIGER

@<TRIPOS>ATOM
      1 C          61.1413   89.0689   10.8787 C.ar    1  UNL1        0.1386
      2 C          61.5383   89.8805    9.6814 C.ar    1  UNL1        0.0369
      3 C          62.6832   90.8450    9.7751 C.ar    1  UNL1        0.0031
      4 C          63.4311   90.9980   11.0663 C.ar    1  UNL1       -0.0001
      5 C          64.5761   91.9625   11.1600 C.ar    1  UNL1       -0.0024
      6 C          65.3240   92.1155   12.4512 C.ar    1  UNL1       -0.0004
      7 C          64.9271   91.3039   13.6486 C.ar    1  UNL1       -0.0024
      8 C          63.7822   90.3394   13.5549 C.ar    1  UNL1       -0.0002
      9 C          63.0342   90.1864   12.2636 C.ar    1  UNL1        0.0030
     10 C          61.8893   89.2219   12.1699 C.ar    1  UNL1        0.0369
     11 O          59.9964   88.1043   10.7850 O.3     1  UNL1       -0.4750
     12 C          60.0064   87.0276    9.7407 C.3     1  UNL1        0.2138
     13 C          61.2155   86.1556    9.5741 C.3     1  UNL1        0.1090
     14 C          61.1243   86.3136    8.0853 C.3     1  UNL1        0.0129
     15 C          61.3068   85.9977   11.0630 C.3     1  UNL1        0.0129
     16 C          64.1219   83.5790   10.3891 C.3     1  UNL1        0.1107
     17 N          62.9128   84.4510   10.5557 N.am    1  UNL1       -0.3026
     18 C          62.4246   85.2837    9.4075 C.2     1  UNL1        0.2251
     19 O          63.1456   85.2444    8.0927 O.2     1  UNL1       -0.2750
     20 H          62.4396   84.4768   11.4186 H       1  UNL1        0.1495
     21 C          66.4690   93.0801   12.5449 C.3     1  UNL1        0.1240
     22 N          67.3600   93.0714   13.7515 N.ar    1  UNL1       -0.3045
     23 C          67.1908   93.9174   14.9786 C.ar    1  UNL1        0.0983
     24 C          68.3029   93.5841   15.9284 C.ar    1  UNL1        0.1193
     25 N          69.1595   92.5322   15.2883 N.ar    1  UNL1       -0.2223
     26 C          68.5768   92.2153   13.9430 C.ar    1  UNL1        0.1788
     27 C          66.7228   94.0533   11.4320 C.3     1  UNL1        0.0827
     28 C          66.1590   95.4413   11.5063 C.3     1  UNL1        0.0197
     29 N          67.5405   93.6385   10.2449 N.3     1  UNL1       -0.2696
     30 C          67.7459   94.5922    9.1054 C.3     1  UNL1        0.0897
     31 C          68.1528   92.2700   10.1972 C.3     1  UNL1        0.0897
@<TRIPOS>BOND
     1    16    17    1
     2    17    18   am
     3    18    19    2
     4    18    13    1
     5    13    14    1
     6    13    15    1
     7    13    12    1
     8    12    11    1
     9    11     1    1
    10     1     2   ar
    11     2     3   ar
    12     3     4   ar
    13     4     5   ar
    14     5     6   ar
    15     6    21    1
    16    21    27    1
    17    27    28    1
    18    27    29    1
    19    29    30    1
    20    29    31    1
    21    21    22    1
    22    22    23   ar
    23    23    24   ar
    24    24    25   ar
    25    25    26   ar
    26     6     7   ar
    27     7     8   ar
    28     8     9   ar
    29     9    10   ar
    30    10     1   ar
    31     9     4   ar
    32    26    22   ar
    33    17    20    1
@<TRIPOS>MOLECULE
*****
 31 33 0 0 0
SMALL
GASTEIGER

@<TRIPOS>ATOM
      1 C          61.1664   88.6957   10.9014 C.ar    1  UNL1        0.1386
      2 C          61.3544   89.6623    9.7699 C.ar    1  UNL1        0.0369
      3 C          62.4160   90.7186    9.8543 C.ar    1  UNL1        0.0031
      4 C          63.2896   90.8084   11.0703 C.ar    1  UNL1       -0.0001
      5 C          64.3513   91.8647   11.1548 C.ar    1  UNL1       -0.0024
      6 C          65.2249   91.9544   12.3708 C.ar    1  UNL1       -0.0004
      7 C          65.0369   90.9879   13.5024 C.ar    1  UNL1       -0.0024
      8 C          63.9752   89.9316   13.4180 C.ar    1  UNL1       -0.0002
      9 C          63.1016   89.8418   12.2019 C.ar    1  UNL1        0.0030
     10 C          62.0400   88.7855   12.1174 C.ar    1  UNL1        0.0369
     11 O          60.1047   87.6394   10.8169 O.3     1  UNL1       -0.4750
     12 C          59.6175   87.1712    9.4778 C.3     1  UNL1        0.2138
     13 C          60.5142   86.3516    8.5980 C.3     1  UNL1        0.1090
     14 C          61.3159   85.9410    9.7975 C.3     1  UNL1        0.0129
     15 C          59.7126   86.7621    7.3985 C.3     1  UNL1        0.0129
     16 C          61.7762   84.1259    5.5642 C.3     1  UNL1        0.1107
     17 N          60.8794   84.9456    6.4440 N.am    1  UNL1       -0.3026
     18 C          61.4109   85.5319    7.7182 C.2     1  UNL1        0.2251
     19 O          62.8393   85.2986    8.1127 O.2     1  UNL1       -0.2750
     20 H          59.9420   85.0987    6.1851 H       1  UNL1        0.1495
     21 C          66.2865   93.0108   12.4553 C.3     1  UNL1        0.1240
     22 N          66.5135   93.9401   11.3000 N.ar    1  UNL1       -0.3045
     23 C          67.1840   93.5893   10.0049 C.ar    1  UNL1        0.0983
     24 C          67.1947   94.8158    9.1414 C.ar    1  UNL1        0.1193
     25 N          66.5307   95.9246    9.9028 N.ar    1  UNL1       -0.2223
     26 C          66.1097   95.3834   11.2369 C.ar    1  UNL1        0.1788
     27 C          67.1212   93.1377   13.6952 C.3     1  UNL1        0.0827
     28 C          66.6764   94.0374   14.8099 C.3     1  UNL1        0.0197
     29 N          68.4007   92.3649   13.8203 N.3     1  UNL1       -0.2696
     30 C          68.9254   91.5882   12.6491 C.3     1  UNL1        0.0897
     31 C          69.1556   92.3689   15.1165 C.3     1  UNL1        0.0897
@<TRIPOS>BOND
     1    16    17    1
     2    17    18   am
     3    18    19    2
     4    18    13    1
     5    13    14    1
     6    13    15    1
     7    13    12    1
     8    12    11    1
     9    11     1    1
    10     1     2   ar
    11     2     3   ar
    12     3     4   ar
    13     4     5   ar
    14     5     6   ar
    15     6    21    1
    16    21    27    1
    17    27    28    1
    18    27    29    1
    19    29    30    1
    20    29    31    1
    21    21    22    1
    22    22    23   ar
    23    23    24   ar
    24    24    25   ar
    25    25    26   ar
    26     6     7   ar
    27     7     8   ar
    28     8     9   ar
    29     9    10   ar
    30    10     1   ar
    31     9     4   ar
    32    26    22   ar
    33    17    20    1
@<TRIPOS>MOLECULE
*****
 31 33 0 0 0
SMALL
GASTEIGER

@<TRIPOS>ATOM
      1 C          61.4340   88.7207   10.6454 C.ar    1  UNL1        0.1386
      2 C          61.6349   89.7852    9.6080 C.ar    1  UNL1        0.0369
      3 C          62.6521   90.8653    9.8289 C.ar    1  UNL1        0.0031
      4 C          63.4683   90.8809   11.0873 C.ar    1  UNL1       -0.0001
      5 C          64.4854   91.9610   11.3082 C.ar    1  UNL1       -0.0024
      6 C          65.3016   91.9765   12.5666 C.ar    1  UNL1       -0.0004
      7 C          65.1007   90.9119   13.6041 C.ar    1  UNL1       -0.0024
      8 C          64.0835   89.8318   13.3832 C.ar    1  UNL1       -0.0002
      9 C          63.2673   89.8163   12.1247 C.ar    1  UNL1        0.0030
     10 C          62.2502   88.7362   11.9038 C.ar    1  UNL1        0.0369
     11 O          60.4168   87.6406   10.4245 O.3     1  UNL1       -0.4750
     12 C          60.7322   86.4873    9.5187 C.3     1  UNL1        0.2138
     13 C          61.8546   85.5520    9.8584 C.3     1  UNL1        0.1090
     14 C          61.3759   85.4933   11.2787 C.3     1  UNL1        0.0129
     15 C          62.3334   85.6107    8.4381 C.3     1  UNL1        0.0129
     16 C          64.3872   83.3443   11.9707 C.3     1  UNL1        0.1107
     17 N          63.2647   84.2795   11.6310 N.am    1  UNL1       -0.3026
     18 C          62.9771   84.6168   10.1981 C.2     1  UNL1        0.2251
     19 O          63.8119   84.0187    9.1046 O.2     1  UNL1       -0.2750
     20 H          62.7168   84.6720   12.3487 H       1  UNL1        0.1495
     21 C          66.3187   93.0566   12.7875 C.3     1  UNL1        0.1240
     22 N          66.5335   94.1099   11.7414 N.ar    1  UNL1       -0.3045
     23 C          66.2183   95.5696   11.8823 C.ar    1  UNL1        0.0983
     24 C          66.5912   96.2504   10.5988 C.ar    1  UNL1        0.1193
     25 N          67.1368   95.2113    9.6645 N.ar    1  UNL1       -0.2223
     26 C          67.1012   93.8885   10.3708 C.ar    1  UNL1        0.1788
     27 C          67.1211   93.0833   14.0546 C.3     1  UNL1        0.0827
     28 C          66.5237   93.6490   15.3089 C.3     1  UNL1        0.0197
     29 N          68.5209   92.5445   14.0675 N.3     1  UNL1       -0.2696
     30 C          68.9927   91.6557   12.9549 C.3     1  UNL1        0.0897
     31 C          69.4490   92.8943   15.1928 C.3     1  UNL1        0.0897
@<TRIPOS>BOND
     1    16    17    1
     2    17    18   am
     3    18    19    2
     4    18    13    1
     5    13    14    1
     6    13    15    1
     7    13    12    1
     8    12    11    1
     9    11     1    1
    10     1     2   ar
    11     2     3   ar
    12     3     4   ar
    13     4     5   ar
    14     5     6   ar
    15     6    21    1
    16    21    27    1
    17    27    28    1
    18    27    29    1
    19    29    30    1
    20    29    31    1
    21    21    22    1
    22    22    23   ar
    23    23    24   ar
    24    24    25   ar
    25    25    26   ar
    26     6     7   ar
    27     7     8   ar
    28     8     9   ar
    29     9    10   ar
    30    10     1   ar
    31     9     4   ar
    32    26    22   ar
    33    17    20    1
@<TRIPOS>MOLECULE
*****
 31 33 0 0 0
SMALL
GASTEIGER

@<TRIPOS>ATOM
      1 C          60.4695   87.6652    8.1980 C.ar    1  UNL1        0.1386
      2 C          59.9686   88.1708    9.5183 C.ar    1  UNL1        0.0369
      3 C          60.4461   87.5404   10.7929 C.ar    1  UNL1        0.0031
      4 C          61.4245   86.4045   10.7472 C.ar    1  UNL1       -0.0001
      5 C          61.9020   85.7741   12.0218 C.ar    1  UNL1       -0.0024
      6 C          62.8805   84.6381   11.9761 C.ar    1  UNL1       -0.0004
      7 C          63.3815   84.1324   10.6557 C.ar    1  UNL1       -0.0024
      8 C          62.9040   84.7628    9.3810 C.ar    1  UNL1       -0.0002
      9 C          61.9255   85.8989    9.4268 C.ar    1  UNL1        0.0030
     10 C          61.4480   86.5292    8.1522 C.ar    1  UNL1        0.0369
     11 O          59.9920   88.2956    6.9234 O.3     1  UNL1       -0.4750
     12 C          58.9219   89.3460    6.9611 C.3     1  UNL1        0.2138
     13 C          58.8639   90.3963    5.8918 C.3     1  UNL1        0.1090
     14 C          60.3622   90.4657    5.8786 C.3     1  UNL1        0.0129
     15 C          57.3656   90.3269    5.9049 C.3     1  UNL1        0.0129
     16 C          60.0131   92.9867    3.1134 C.3     1  UNL1        0.1107
     17 N          60.0711   91.9364    4.1828 N.am    1  UNL1       -0.3026
     18 C          58.8059   91.4466    4.8224 C.2     1  UNL1        0.2251
     19 O          57.4825   92.0071    4.3927 O.2     1  UNL1       -0.2750
     20 H          60.9397   91.5685    4.4648 H       1  UNL1        0.1495
     21 C          63.3580   84.0077   13.2507 C.3     1  UNL1        0.1240
     22 N          62.9785   82.5935   13.5760 N.ar    1  UNL1       -0.3045
     23 C          61.6529   82.1368   14.1092 C.ar    1  UNL1        0.0983
     24 C          61.7131   80.6487   14.2881 C.ar    1  UNL1        0.1193
     25 N          63.0758   80.1857   13.8654 N.ar    1  UNL1       -0.2223
     26 C          63.8578   81.3877   13.4254 C.ar    1  UNL1        0.1788
     27 C          64.2150   84.7917   14.1999 C.3     1  UNL1        0.0827
     28 C          65.7091   84.6774   14.1305 C.3     1  UNL1        0.0197
     29 N          63.5780   85.6897   15.2185 N.3     1  UNL1       -0.2696
     30 C          63.9832   87.1314   15.3053 C.3     1  UNL1        0.0897
     31 C          62.5359   85.1462   16.1505 C.3     1  UNL1        0.0897
@<TRIPOS>BOND
     1    16    17    1
     2    17    18   am
     3    18    19    2
     4    18    13    1
     5    13    14    1
     6    13    15    1
     7    13    12    1
     8    12    11    1
     9    11     1    1
    10     1     2   ar
    11     2     3   ar
    12     3     4   ar
    13     4     5   ar
    14     5     6   ar
    15     6    21    1
    16    21    27    1
    17    27    28    1
    18    27    29    1
    19    29    30    1
    20    29    31    1
    21    21    22    1
    22    22    23   ar
    23    23    24   ar
    24    24    25   ar
    25    25    26   ar
    26     6     7   ar
    27     7     8   ar
    28     8     9   ar
    29     9    10   ar
    30    10     1   ar
    31     9     4   ar
    32    26    22   ar
    33    17    20    1
@<TRIPOS>MOLECULE
*****
 31 33 0 0 0
SMALL
GASTEIGER

@<TRIPOS>ATOM
      1 C          59.8214   89.0657    8.5106 C.ar    1  UNL1        0.1386
      2 C          59.7193   89.3898    9.9716 C.ar    1  UNL1        0.0369
      3 C          60.3680   88.4946   10.9855 C.ar    1  UNL1        0.0031
      4 C          61.1187   87.2754   10.5384 C.ar    1  UNL1       -0.0001
      5 C          61.7673   86.3803   11.5522 C.ar    1  UNL1       -0.0024
      6 C          62.5180   85.1611   11.1051 C.ar    1  UNL1       -0.0004
      7 C          62.6201   84.8370    9.6440 C.ar    1  UNL1       -0.0024
      8 C          61.9715   85.7321    8.6302 C.ar    1  UNL1       -0.0002
      9 C          61.2207   86.9514    9.0774 C.ar    1  UNL1        0.0030
     10 C          60.5721   87.8465    8.0635 C.ar    1  UNL1        0.0369
     11 O          59.1727   89.9609    7.4967 O.3     1  UNL1       -0.4750
     12 C          59.5001   89.8062    6.0411 C.3     1  UNL1        0.2138
     13 C          59.4595   90.9989    5.1324 C.3     1  UNL1        0.1090
     14 C          57.9789   91.1106    5.3452 C.3     1  UNL1        0.0129
     15 C          60.9401   90.8872    4.9196 C.3     1  UNL1        0.0129
     16 C          59.5650   93.2079    1.8371 C.3     1  UNL1        0.1107
     17 N          59.6056   92.0152    2.7458 N.am    1  UNL1       -0.3026
     18 C          59.4189   92.1916    4.2236 C.2     1  UNL1        0.2251
     19 O          59.1916   93.5608    4.7928 O.2     1  UNL1       -0.2750
     20 H          59.7547   91.1166    2.3723 H       1  UNL1        0.1495
     21 C          63.1667   84.2659   12.1190 C.3     1  UNL1        0.1240
     22 N          63.1844   84.6608   13.5659 N.ar    1  UNL1       -0.3045
     23 C          64.2467   85.4734   14.2451 C.ar    1  UNL1        0.0983
     24 C          63.8617   85.6272   15.6867 C.ar    1  UNL1        0.1193
     25 N          62.5615   84.9098   15.8985 N.ar    1  UNL1       -0.2223
     26 C          62.1429   84.3125   14.5877 C.ar    1  UNL1        0.1788
     27 C          63.7977   82.9758   11.6858 C.3     1  UNL1        0.0827
     28 C          64.7335   82.9550   10.5138 C.3     1  UNL1        0.0197
     29 N          63.4928   81.7066   12.4248 N.3     1  UNL1       -0.2696
     30 C          62.5515   80.7007   11.8312 C.3     1  UNL1        0.0897
     31 C          64.1292   81.4431   13.7573 C.3     1  UNL1        0.0897
@<TRIPOS>BOND
     1    16    17    1
     2    17    18   am
     3    18    19    2
     4    18    13    1
     5    13    14    1
     6    13    15    1
     7    13    12    1
     8    12    11    1
     9    11     1    1
    10     1     2   ar
    11     2     3   ar
    12     3     4   ar
    13     4     5   ar
    14     5     6   ar
    15     6    21    1
    16    21    27    1
    17    27    28    1
    18    27    29    1
    19    29    30    1
    20    29    31    1
    21    21    22    1
    22    22    23   ar
    23    23    24   ar
    24    24    25   ar
    25    25    26   ar
    26     6     7   ar
    27     7     8   ar
    28     8     9   ar
    29     9    10   ar
    30    10     1   ar
    31     9     4   ar
    32    26    22   ar
    33    17    20    1
@<TRIPOS>MOLECULE
*****
 31 33 0 0 0
SMALL
GASTEIGER

@<TRIPOS>ATOM
      1 C          59.2814   90.0962    6.0085 C.ar    1  UNL1        0.1386
      2 C          58.1529   90.9756    5.5578 C.ar    1  UNL1        0.0369
      3 C          58.3823   92.0003    4.4867 C.ar    1  UNL1        0.0031
      4 C          59.7401   92.1457    3.8663 C.ar    1  UNL1       -0.0001
      5 C          59.9695   93.1704    2.7952 C.ar    1  UNL1       -0.0024
      6 C          61.3274   93.3158    2.1747 C.ar    1  UNL1       -0.0004
      7 C          62.4560   92.4364    2.6254 C.ar    1  UNL1       -0.0024
      8 C          62.2266   91.4117    3.6965 C.ar    1  UNL1       -0.0002
      9 C          60.8686   91.2663    4.3169 C.ar    1  UNL1        0.0030
     10 C          60.6393   90.2416    5.3880 C.ar    1  UNL1        0.0369
     11 O          59.0520   89.0714    7.0796 O.3     1  UNL1       -0.4750
     12 C          59.7929   89.1673    8.3803 C.3     1  UNL1        0.2138
     13 C          60.5484   87.9813    8.9023 C.3     1  UNL1        0.1090
     14 C          59.6323   87.0650    8.1465 C.3     1  UNL1        0.0129
     15 C          61.4645   88.8975    9.6581 C.3     1  UNL1        0.0129
     16 C          62.0652   85.3114   11.4164 C.3     1  UNL1        0.1107
     17 N          61.3097   86.4974   10.8944 N.am    1  UNL1       -0.3026
     18 C          61.3039   86.7952    9.4243 C.2     1  UNL1        0.2251
     19 O          62.0537   85.9070    8.4761 O.2     1  UNL1       -0.2750
     20 H          60.8176   87.0804   11.5167 H       1  UNL1        0.1495
     21 C          61.5567   94.3406    1.1036 C.3     1  UNL1        0.1240
     22 N          62.9398   94.8617    0.8481 N.ar    1  UNL1       -0.3045
     23 C          63.6291   95.9482    1.6191 C.ar    1  UNL1        0.0983
     24 C          64.9918   96.1459    1.0242 C.ar    1  UNL1        0.1193
     25 N          65.1448   95.1815   -0.1145 N.ar    1  UNL1       -0.2223
     26 C          63.8766   94.3879   -0.2234 C.ar    1  UNL1        0.1788
     27 C          60.4029   94.8442    0.2881 C.3     1  UNL1        0.0827
     28 C          59.8276   96.2023    0.5612 C.3     1  UNL1        0.0197
     29 N          59.8244   93.9898   -0.8006 N.3     1  UNL1       -0.2696
     30 C          58.4648   93.3788   -0.6321 C.3     1  UNL1        0.0897
     31 C          60.6054   93.7462   -2.0579 C.3     1  UNL1        0.0897
@<TRIPOS>BOND
     1    16    17    1
     2    17    18   am
     3    18    19    2
     4    18    13    1
     5    13    14    1
     6    13    15    1
     7    13    12    1
     8    12    11    1
     9    11     1    1
    10     1     2   ar
    11     2     3   ar
    12     3     4   ar
    13     4     5   ar
    14     5     6   ar
    15     6    21    1
    16    21    27    1
    17    27    28    1
    18    27    29    1
    19    29    30    1
    20    29    31    1
    21    21    22    1
    22    22    23   ar
    23    23    24   ar
    24    24    25   ar
    25    25    26   ar
    26     6     7   ar
    27     7     8   ar
    28     8     9   ar
    29     9    10   ar
    30    10     1   ar
    31     9     4   ar
    32    26    22   ar
    33    17    20    1
@<TRIPOS>MOLECULE
*****
 31 33 0 0 0
SMALL
GASTEIGER

@<TRIPOS>ATOM
      1 C          59.3122   90.0693    5.9805 C.ar    1  UNL1        0.1386
      2 C          58.1888   90.9620    5.5433 C.ar    1  UNL1        0.0369
      3 C          58.4245   92.0023    4.4887 C.ar    1  UNL1        0.0031
      4 C          59.7835   92.1500    3.8713 C.ar    1  UNL1       -0.0001
      5 C          60.0192   93.1903    2.8167 C.ar    1  UNL1       -0.0024
      6 C          61.3782   93.3379    2.1992 C.ar    1  UNL1       -0.0004
      7 C          62.5016   92.4452    2.6364 C.ar    1  UNL1       -0.0024
      8 C          62.2659   91.4049    3.6910 C.ar    1  UNL1       -0.0002
      9 C          60.9068   91.2573    4.3084 C.ar    1  UNL1        0.0030
     10 C          60.6712   90.2169    5.3631 C.ar    1  UNL1        0.0369
     11 O          59.0765   89.0290    7.0351 O.3     1  UNL1       -0.4750
     12 C          59.7710   89.1338    8.3605 C.3     1  UNL1        0.2138
     13 C          60.5237   87.9575    8.9079 C.3     1  UNL1        0.1090
     14 C          59.6517   87.0302    8.1144 C.3     1  UNL1        0.0129
     15 C          61.3958   88.8848    9.7014 C.3     1  UNL1        0.0129
     16 C          62.0507   85.3501   11.4808 C.3     1  UNL1        0.1107
     17 N          61.2980   86.5264   10.9334 N.am    1  UNL1       -0.3026
     18 C          61.2764   86.7812    9.4553 C.2     1  UNL1        0.2251
     19 O          62.0076   85.8595    8.5247 O.2     1  UNL1       -0.2750
     20 H          60.8181   87.1313   11.5442 H       1  UNL1        0.1495
     21 C          61.6138   94.3782    1.1446 C.3     1  UNL1        0.1240
     22 N          60.8830   94.2997   -0.1629 N.ar    1  UNL1       -0.3045
     23 C          60.9689   93.1779   -1.1550 C.ar    1  UNL1        0.0983
     24 C          60.0769   93.5141   -2.3131 C.ar    1  UNL1        0.1193
     25 N          59.4397   94.8436   -2.0369 N.ar    1  UNL1       -0.2223
     26 C          59.9379   95.3292   -0.7079 C.ar    1  UNL1        0.1788
     27 C          62.5804   95.4971    1.3976 C.3     1  UNL1        0.0827
     28 C          62.0718   96.8558    1.7786 C.3     1  UNL1        0.0197
     29 N          64.0555   95.2572    1.2695 N.3     1  UNL1       -0.2696
     30 C          64.5923   94.4954    0.0941 C.3     1  UNL1        0.0897
     31 C          64.9940   95.7792    2.3168 C.3     1  UNL1        0.0897
@<TRIPOS>BOND
     1    16    17    1
     2    17    18   am
     3    18    19    2
     4    18    13    1
     5    13    14    1
     6    13    15    1
     7    13    12    1
     8    12    11    1
     9    11     1    1
    10     1     2   ar
    11     2     3   ar
    12     3     4   ar
    13     4     5   ar
    14     5     6   ar
    15     6    21    1
    16    21    27    1
    17    27    28    1
    18    27    29    1
    19    29    30    1
    20    29    31    1
    21    21    22    1
    22    22    23   ar
    23    23    24   ar
    24    24    25   ar
    25    25    26   ar
    26     6     7   ar
    27     7     8   ar
    28     8     9   ar
    29     9    10   ar
    30    10     1   ar
    31     9     4   ar
    32    26    22   ar
    33    17    20    1
@<TRIPOS>MOLECULE
*****
 31 33 0 0 0
SMALL
GASTEIGER

@<TRIPOS>ATOM
      1 C          45.1174   73.3317   17.9264 C.ar    1  UNL1        0.1386
      2 C          43.8331   73.9732   17.4917 C.ar    1  UNL1        0.0369
      3 C          43.7134   75.4682   17.4638 C.ar    1  UNL1        0.0031
      4 C          44.8779   76.3216   17.8706 C.ar    1  UNL1       -0.0001
      5 C          44.7581   77.8165   17.8427 C.ar    1  UNL1       -0.0024
      6 C          45.9226   78.6700   18.2495 C.ar    1  UNL1       -0.0004
      7 C          47.2070   78.0285   18.6843 C.ar    1  UNL1       -0.0024
      8 C          47.3267   76.5335   18.7122 C.ar    1  UNL1       -0.0002
      9 C          46.1621   75.6801   18.3053 C.ar    1  UNL1        0.0030
     10 C          46.2819   74.1851   18.3333 C.ar    1  UNL1        0.0369
     11 O          45.2372   71.8367   17.9544 O.3     1  UNL1       -0.4750
     12 C          44.4533   71.0033   16.9844 C.3     1  UNL1        0.2138
     13 C          45.1564   70.2966   15.8636 C.3     1  UNL1        0.1090
     14 C          43.9958   70.5803   14.9566 C.3     1  UNL1        0.0129
     15 C          46.3170   70.0128   16.7706 C.3     1  UNL1        0.0129
     16 C          46.0488   69.0064   12.2182 C.3     1  UNL1        0.1107
     17 N          45.3457   69.7131   13.3390 N.am    1  UNL1       -0.3026
     18 C          45.8595   69.5898   14.7428 C.2     1  UNL1        0.2251
     19 O          47.0765   68.7598   15.0259 O.2     1  UNL1       -0.2750
     20 H          44.5470   70.2579   13.1532 H       1  UNL1        0.1495
     21 C          45.8028   80.1649   18.2216 C.3     1  UNL1        0.1240
     22 N          45.5238   80.8709   16.9279 N.ar    1  UNL1       -0.3045
     23 C          44.4254   81.8628   16.6839 C.ar    1  UNL1        0.0983
     24 C          44.5170   82.3140   15.2563 C.ar    1  UNL1        0.1193
     25 N          45.6721   81.6009   14.6180 N.ar    1  UNL1       -0.2223
     26 C          46.2943   80.7091   15.6511 C.ar    1  UNL1        0.1788
     27 C          45.9621   80.9538   19.4875 C.3     1  UNL1        0.0827
     28 C          46.9553   82.0760   19.5519 C.3     1  UNL1        0.0197
     29 N          45.1280   80.6206   20.6888 N.3     1  UNL1       -0.2696
     30 C          45.7806   80.0911   21.9314 C.3     1  UNL1        0.0897
     31 C          43.6415   80.8168   20.6477 C.3     1  UNL1        0.0897
@<TRIPOS>BOND
     1    16    17    1
     2    17    18   am
     3    18    19    2
     4    18    13    1
     5    13    14    1
     6    13    15    1
     7    13    12    1
     8    12    11    1
     9    11     1    1
    10     1     2   ar
    11     2     3   ar
    12     3     4   ar
    13     4     5   ar
    14     5     6   ar
    15     6    21    1
    16    21    27    1
    17    27    28    1
    18    27    29    1
    19    29    30    1
    20    29    31    1
    21    21    22    1
    22    22    23   ar
    23    23    24   ar
    24    24    25   ar
    25    25    26   ar
    26     6     7   ar
    27     7     8   ar
    28     8     9   ar
    29     9    10   ar
    30    10     1   ar
    31     9     4   ar
    32    26    22   ar
    33    17    20    1
