@<TRIPOS>MOLECULE
*****
 43 48 0 0 0
SMALL
GASTEIGER

@<TRIPOS>ATOM
      1 C          61.7158   88.7342   11.4072 C.ar    1  UNL1        0.0040
      2 C          61.3793   87.7653   10.3128 C.ar    1  UNL1        0.0719
      3 C          61.9770   86.4367   10.6700 C.ar    1  UNL1        0.1049
      4 N          62.6830   86.5846   11.9852 N.ar    1  UNL1       -0.2242
      5 N          63.4519   85.6097   12.8268 N.ar    1  UNL1       -0.1422
      6 C          64.0594   86.0548   14.1240 C.ar    1  UNL1        0.2211
      7 N          63.8979   87.4747   14.5796 N.ar    1  UNL1       -0.2060
      8 C          63.1290   88.4496   13.7381 C.ar    1  UNL1        0.1515
      9 C          62.5215   88.0045   12.4409 C.ar    1  UNL1        0.1107
     10 C          60.5846   88.0711    9.0779 C.ar    1  UNL1        0.2525
     11 N          59.4745   87.2346    8.5141 N.ar    1  UNL1       -0.1057
     12 N          58.9642   87.9137    7.2778 N.ar    1  UNL1       -0.0921
     13 C          59.7590   89.1700    7.0775 C.ar    1  UNL1        0.3119
     14 O          60.7604   89.2673    8.1900 O.2     1  UNL1       -0.4046
     15 N          59.5832   90.1559    5.9607 N.pl3   1  UNL1       -0.2623
     16 C          58.2174   90.6826    5.6332 C.3     1  UNL1        0.0965
     17 C          58.0418   91.6684    4.5165 C.3     1  UNL1        0.0371
     18 C          59.2318   92.1276    3.7273 C.3     1  UNL1        0.0542
     19 N          59.0561   93.1136    2.6105 N.3     1  UNL1       -0.3221
     20 C          60.5975   91.6010    4.0548 C.3     1  UNL1        0.0371
     21 C          60.7733   90.6151    5.1715 C.3     1  UNL1        0.0965
     22 H          59.9623   93.3121    2.1865 H       1  UNL1        0.1188
     23 H          58.6566   93.9768    2.9788 H       1  UNL1        0.1188
     24 C          59.9299   90.5594   11.8864 C.3     1  UNL1        0.0047
     25 C          61.3166   90.1792   11.4590 C.3     1  UNL1        0.0241
     26 C          62.3040   91.2440   11.0835 C.3     1  UNL1        0.0047
     27 N          62.9675   89.8696   14.1937 N.pl3   1  UNL1       -0.2949
     28 H          62.0695   90.2278   14.3796 H       1  UNL1        0.1537
     29 C          64.1741   90.7437   14.3663 C.ar    1  UNL1        0.0775
     30 C          65.0882   90.9983   13.2045 C.ar    1  UNL1        0.0237
     31 C          66.2948   91.8725   13.3770 C.ar    1  UNL1        0.0821
     32 C          66.5875   92.4920   14.7114 C.ar    1  UNL1        0.1468
     33 F          67.7943   93.3662   14.8839 F       1  UNL1       -0.2039
     34 C          65.6736   92.2374   15.8731 C.ar    1  UNL1        0.0607
     35 C          64.4668   91.3633   15.7006 C.ar    1  UNL1        0.1557
     36 F          63.5529   91.1087   16.8624 F       1  UNL1       -0.2028
     37 C          67.2089   92.1271   12.2152 C.2     1  UNL1        0.2480
     38 O          68.6632   91.7732   12.3134 O.2     1  UNL1       -0.2701
     39 N          66.6685   92.7356   10.9551 N.am    1  UNL1       -0.3024
     40 H          65.7140   92.9679   10.8907 H       1  UNL1        0.1497
     41 C          67.5825   92.9903    9.7933 C.3     1  UNL1        0.0720
     42 C          68.0967   93.9045    8.7211 C.3     1  UNL1        0.0213
     43 C          68.6512   92.5171    8.8533 C.3     1  UNL1        0.0213
@<TRIPOS>BOND
     1    24    25    1
     2    25    26    1
     3    25     1    1
     4     1     2   ar
     5     2    10    1
     6    10    11   ar
     7    11    12   ar
     8    12    13   ar
     9    13    15    1
    10    15    16    1
    11    16    17    1
    12    17    18    1
    13    18    19    1
    14    18    20    1
    15    20    21    1
    16    13    14   ar
    17     2     3   ar
    18     3     4   ar
    19     4     5   ar
    20     5     6   ar
    21     6     7   ar
    22     7     8   ar
    23     8    27    1
    24    27    29    1
    25    29    30   ar
    26    30    31   ar
    27    31    37    1
    28    37    38    2
    29    37    39   am
    30    39    41    1
    31    41    42    1
    32    42    43    1
    33    31    32   ar
    34    32    33    1
    35    32    34   ar
    36    34    35   ar
    37    35    36    1
    38     8     9   ar
    39     9     1   ar
    40    14    10   ar
    41     9     4   ar
    42    21    15    1
    43    35    29   ar
    44    43    41    1
    45    19    22    1
    46    19    23    1
    47    27    28    1
    48    39    40    1
@<TRIPOS>MOLECULE
*****
 43 48 0 0 0
SMALL
GASTEIGER

@<TRIPOS>ATOM
      1 C          61.3159   88.6952   11.0754 C.ar    1  UNL1        0.0040
      2 C          60.9920   87.8888    9.8528 C.ar    1  UNL1        0.0719
      3 C          61.6264   86.5383   10.0069 C.ar    1  UNL1        0.1049
      4 N          62.3423   86.5100   11.3247 N.ar    1  UNL1       -0.2242
      5 N          63.1442   85.4427   12.0086 N.ar    1  UNL1       -0.1422
      6 C          63.7542   85.7085   13.3529 C.ar    1  UNL1        0.2211
      7 N          63.5623   87.0415   14.0133 N.ar    1  UNL1       -0.2060
      8 C          62.7604   88.1089   13.3294 C.ar    1  UNL1        0.1515
      9 C          62.1505   87.8431   11.9851 C.ar    1  UNL1        0.1107
     10 C          60.1768   88.3516    8.6818 C.ar    1  UNL1        0.2525
     11 N          58.8551   87.7889    8.2500 N.ar    1  UNL1       -0.1057
     12 N          58.4017   88.5478    7.0383 N.ar    1  UNL1       -0.0921
     13 C          59.4432   89.5797    6.7211 C.ar    1  UNL1        0.3119
     14 O          60.5403   89.4583    7.7368 O.2     1  UNL1       -0.4046
     15 N          59.3959   90.5606    5.5872 N.pl3   1  UNL1       -0.2623
     16 C          60.6702   91.0519    4.9670 C.3     1  UNL1        0.0965
     17 C          60.6229   92.0328    3.8332 C.3     1  UNL1        0.0371
     18 C          59.3013   92.5223    3.3196 C.3     1  UNL1        0.0542
     19 N          59.2540   93.5033    2.1857 N.3     1  UNL1       -0.3221
     20 C          58.0271   92.0310    3.9399 C.3     1  UNL1        0.0371
     21 C          58.0744   91.0501    5.0737 C.3     1  UNL1        0.0965
     22 H          58.2824   93.7250    1.9683 H       1  UNL1        0.1188
     23 H          59.7018   93.0959    1.3648 H       1  UNL1        0.1188
     24 C          59.5964   90.3706   12.0688 C.3     1  UNL1        0.0047
     25 C          60.8815   90.1060   11.3416 C.3     1  UNL1        0.0241
     26 C          61.7321   91.2523   10.8808 C.3     1  UNL1        0.0047
     27 N          62.5686   89.4419   13.9898 N.pl3   1  UNL1       -0.2949
     28 H          61.7152   89.6535   14.4328 H       1  UNL1        0.1537
     29 C          63.6768   90.4526   13.9752 C.ar    1  UNL1        0.0775
     30 C          64.1238   91.0568   12.6771 C.ar    1  UNL1        0.0237
     31 C          65.2321   92.0675   12.6625 C.ar    1  UNL1        0.0821
     32 C          65.8934   92.4740   13.9460 C.ar    1  UNL1        0.1468
     33 F          67.0017   93.4847   13.9314 F       1  UNL1       -0.2039
     34 C          65.4464   91.8698   15.2441 C.ar    1  UNL1        0.0607
     35 C          64.3381   90.8591   15.2587 C.ar    1  UNL1        0.1557
     36 F          63.8912   90.2549   16.5569 F       1  UNL1       -0.2028
     37 C          65.6791   92.6718   11.3643 C.2     1  UNL1        0.2480
     38 O          65.1234   92.1604   10.0683 O.2     1  UNL1       -0.2701
     39 N          66.6818   93.7873   11.3623 N.am    1  UNL1       -0.3024
     40 H          67.0466   94.1229   12.2129 H       1  UNL1        0.1497
     41 C          67.1289   94.3916   10.0642 C.3     1  UNL1        0.0720
     42 C          67.2471   95.5805    9.1573 C.3     1  UNL1        0.0213
     43 C          67.7848   94.2493    8.7228 C.3     1  UNL1        0.0213
@<TRIPOS>BOND
     1    24    25    1
     2    25    26    1
     3    25     1    1
     4     1     2   ar
     5     2    10    1
     6    10    11   ar
     7    11    12   ar
     8    12    13   ar
     9    13    15    1
    10    15    16    1
    11    16    17    1
    12    17    18    1
    13    18    19    1
    14    18    20    1
    15    20    21    1
    16    13    14   ar
    17     2     3   ar
    18     3     4   ar
    19     4     5   ar
    20     5     6   ar
    21     6     7   ar
    22     7     8   ar
    23     8    27    1
    24    27    29    1
    25    29    30   ar
    26    30    31   ar
    27    31    37    1
    28    37    38    2
    29    37    39   am
    30    39    41    1
    31    41    42    1
    32    42    43    1
    33    31    32   ar
    34    32    33    1
    35    32    34   ar
    36    34    35   ar
    37    35    36    1
    38     8     9   ar
    39     9     1   ar
    40    14    10   ar
    41     9     4   ar
    42    21    15    1
    43    35    29   ar
    44    43    41    1
    45    19    22    1
    46    19    23    1
    47    27    28    1
    48    39    40    1
@<TRIPOS>MOLECULE
*****
 43 48 0 0 0
SMALL
GASTEIGER

@<TRIPOS>ATOM
      1 C          63.0340   87.1696   12.8211 C.ar    1  UNL1        0.0040
      2 C          62.9019   86.0355   11.8484 C.ar    1  UNL1        0.0719
      3 C          62.2916   86.5741   10.5885 C.ar    1  UNL1        0.1049
      4 N          62.0466   88.0412   10.7825 N.ar    1  UNL1       -0.2242
      5 N          61.4650   89.0895    9.8810 N.ar    1  UNL1       -0.1422
      6 C          61.3422   90.5059   10.3594 C.ar    1  UNL1        0.2211
      7 N          61.8010   90.8739   11.7393 N.ar    1  UNL1       -0.2060
      8 C          62.3826   89.8256   12.6408 C.ar    1  UNL1        0.1515
      9 C          62.5054   88.4093   12.1624 C.ar    1  UNL1        0.1107
     10 C          63.3086   84.6125   12.0927 C.ar    1  UNL1        0.2525
     11 N          64.3562   84.1487   13.0609 N.ar    1  UNL1       -0.1057
     12 N          64.4342   82.6530   12.9783 N.ar    1  UNL1       -0.0921
     13 C          63.4346   82.1923   11.9591 C.ar    1  UNL1        0.3119
     14 O          62.7390   83.4034   11.4118 O.2     1  UNL1       -0.4046
     15 N          63.1761   80.7704   11.5577 N.pl3   1  UNL1       -0.2623
     16 C          63.2972   80.3633   10.1190 C.3     1  UNL1        0.0965
     17 C          63.0387   78.9414    9.7177 C.3     1  UNL1        0.0371
     18 C          62.6591   77.9265   10.7549 C.3     1  UNL1        0.0542
     19 N          62.4006   76.5044   10.3535 N.3     1  UNL1       -0.3221
     20 C          62.5381   78.3335   12.1934 C.3     1  UNL1        0.0371
     21 C          62.7966   79.7555   12.5949 C.3     1  UNL1        0.0965
     22 H          62.1567   75.9571   11.1789 H       1  UNL1        0.1188
     23 H          63.2392   76.1149    9.9228 H       1  UNL1        0.1188
     24 C          62.9553   86.1767   15.2207 C.3     1  UNL1        0.0047
     25 C          63.5961   87.0800   14.2090 C.3     1  UNL1        0.0241
     26 C          64.7987   87.8935   14.5851 C.3     1  UNL1        0.0047
     27 N          62.8415   90.1937   14.0206 N.pl3   1  UNL1       -0.2949
     28 H          62.3644   89.8440   14.8076 H       1  UNL1        0.1537
     29 C          64.0272   91.0944   14.2014 C.ar    1  UNL1        0.0775
     30 C          64.7434   91.6412   13.0022 C.ar    1  UNL1        0.0237
     31 C          65.9291   92.5420   13.1830 C.ar    1  UNL1        0.0821
     32 C          66.3986   92.8960   14.5629 C.ar    1  UNL1        0.1468
     33 F          67.5844   93.7968   14.7436 F       1  UNL1       -0.2039
     34 C          65.6824   92.3492   15.7621 C.ar    1  UNL1        0.0607
     35 C          64.4967   91.4484   15.5813 C.ar    1  UNL1        0.1557
     36 F          63.7805   90.9016   16.7805 F       1  UNL1       -0.2028
     37 C          66.6454   93.0888   11.9837 C.2     1  UNL1        0.2480
     38 O          67.8206   92.3528   11.4119 O.2     1  UNL1       -0.2701
     39 N          66.1863   94.3717   11.3564 N.am    1  UNL1       -0.3024
     40 H          65.4150   94.8548   11.7318 H       1  UNL1        0.1497
     41 C          66.9025   94.9186   10.1573 C.3     1  UNL1        0.0720
     42 C          67.3241   96.0876    9.3173 C.3     1  UNL1        0.0213
     43 C          67.7214   94.6967    8.9203 C.3     1  UNL1        0.0213
@<TRIPOS>BOND
     1    24    25    1
     2    25    26    1
     3    25     1    1
     4     1     2   ar
     5     2    10    1
     6    10    11   ar
     7    11    12   ar
     8    12    13   ar
     9    13    15    1
    10    15    16    1
    11    16    17    1
    12    17    18    1
    13    18    19    1
    14    18    20    1
    15    20    21    1
    16    13    14   ar
    17     2     3   ar
    18     3     4   ar
    19     4     5   ar
    20     5     6   ar
    21     6     7   ar
    22     7     8   ar
    23     8    27    1
    24    27    29    1
    25    29    30   ar
    26    30    31   ar
    27    31    37    1
    28    37    38    2
    29    37    39   am
    30    39    41    1
    31    41    42    1
    32    42    43    1
    33    31    32   ar
    34    32    33    1
    35    32    34   ar
    36    34    35   ar
    37    35    36    1
    38     8     9   ar
    39     9     1   ar
    40    14    10   ar
    41     9     4   ar
    42    21    15    1
    43    35    29   ar
    44    43    41    1
    45    19    22    1
    46    19    23    1
    47    27    28    1
    48    39    40    1
