@<TRIPOS>MOLECULE
*****
 35 40 0 0 0
SMALL
GASTEIGER

@<TRIPOS>ATOM
      1 N          62.6177   85.8323   11.7271 N.ar    1  UNL1       -0.3132
      2 C          63.0307   84.4181   12.0091 C.ar    1  UNL1        0.0804
      3 C          62.7437   83.1282   11.2995 C.ar    1  UNL1        0.1160
      4 N          63.3053   81.8411   11.8267 N.ar    1  UNL1       -0.2408
      5 C          64.1539   81.8440   13.0636 C.ar    1  UNL1        0.0990
      6 C          64.4408   83.1340   13.7733 C.ar    1  UNL1        0.0223
      7 C          63.8792   84.4210   13.2460 C.ar    1  UNL1        0.0233
      8 C          63.9906   85.8370   13.7284 C.ar    1  UNL1        0.0549
      9 C          64.7013   86.4448   14.9012 C.ar    1  UNL1        0.1048
     10 N          64.6323   87.9248   15.1352 N.ar    1  UNL1       -0.2119
     11 C          63.8526   88.7971   14.1965 C.ar    1  UNL1        0.2231
     12 N          63.1419   88.1893   13.0237 N.ar    1  UNL1       -0.1961
     13 C          63.2109   86.7092   12.7896 C.ar    1  UNL1        0.1482
     14 C          59.1935   87.6604    7.1517 C.3     1  UNL1        0.0000
     15 C          60.0495   87.2034    8.2956 C.3     1  UNL1        0.0001
     16 C          59.7789   87.7063    9.6826 C.3     1  UNL1        0.0019
     17 C          60.6349   87.2493   10.8264 C.3     1  UNL1        0.0226
     18 C          61.7616   86.2893   10.5832 C.3     1  UNL1        0.0869
     19 C          62.0322   85.7864    9.1962 C.3     1  UNL1        0.0226
     20 C          61.1762   86.2435    8.0524 C.3     1  UNL1        0.0019
     21 N          63.7836   90.2771   14.4305 N.pl3   1  UNL1       -0.2679
     22 H          63.2991   90.6299   15.2116 H       1  UNL1        0.1565
     23 C          64.4527   91.2196   13.4745 C.ar    1  UNL1        0.1344
     24 C          64.0514   91.2321   12.0292 C.ar    1  UNL1        0.0358
     25 C          64.7206   92.1746   11.0731 C.ar    1  UNL1        0.0190
     26 C          65.7910   93.1046   11.5624 C.ar    1  UNL1        0.0675
     27 C          66.1923   93.0921   13.0078 C.ar    1  UNL1        0.1147
     28 N          65.5231   92.1496   13.9638 N.ar    1  UNL1       -0.2277
     29 N          66.4601   94.0471   10.6064 N.pl3   1  UNL1       -0.3035
     30 C          67.3407   93.5105    9.5170 C.3     1  UNL1        0.1079
     31 C          68.0098   94.4530    8.5610 C.3     1  UNL1        0.0903
     32 N          67.7984   95.9321    8.6944 N.3     1  UNL1       -0.2946
     33 C          66.9179   96.4686    9.7838 C.3     1  UNL1        0.0903
     34 C          66.2487   95.5261   10.7398 C.3     1  UNL1        0.1079
     35 H          67.4030   96.2539    7.8109 H       1  UNL1        0.1233
@<TRIPOS>BOND
     1    15    14    1
     2    15    16    1
     3    16    17    1
     4    17    18    1
     5    18     1    1
     6     1     2   ar
     7     2     3   ar
     8     3     4   ar
     9     4     5   ar
    10     5     6   ar
    11     6     7   ar
    12     7     8   ar
    13     8     9   ar
    14     9    10   ar
    15    10    11   ar
    16    11    21    1
    17    21    23    1
    18    23    24   ar
    19    24    25   ar
    20    25    26   ar
    21    26    29    1
    22    29    30    1
    23    30    31    1
    24    31    32    1
    25    32    33    1
    26    33    34    1
    27    26    27   ar
    28    27    28   ar
    29    11    12   ar
    30    12    13   ar
    31    18    19    1
    32    19    20    1
    33    20    15    1
    34    13     1   ar
    35     7     2   ar
    36    13     8   ar
    37    28    23   ar
    38    34    29    1
    39    21    22    1
    40    32    35    1
