@<TRIPOS>MOLECULE
*****
 34 37 0 0 0
SMALL
GASTEIGER

@<TRIPOS>ATOM
      1 C          64.5462   85.6239   14.5572 C.2     1  UNL1        0.2015
      2 O          65.9751   85.2040   14.7349 O.2     1  UNL1       -0.2864
      3 C          63.9070   86.5487   15.5504 C.ar    1  UNL1        0.0611
      4 C          63.1011   86.1370   16.7466 C.ar    1  UNL1        0.1037
      5 N          62.6576   87.3814   17.4572 N.ar    1  UNL1       -0.2269
      6 C          63.1894   88.5620   16.7001 C.ar    1  UNL1        0.1407
      7 N          63.0703   90.0392   16.9315 N.ar    1  UNL1       -0.3374
      8 C          63.7233   91.0018   15.9845 C.ar    1  UNL1        0.0735
      9 C          64.4955   90.4872   14.8060 C.ar    1  UNL1        0.0201
     10 C          64.6146   89.0100   14.5745 C.ar    1  UNL1        0.0047
     11 C          63.9616   88.0474   15.5216 C.ar    1  UNL1        0.0386
     12 H          62.5635   90.3770   17.7050 H       1  UNL1        0.1674
     13 C          65.1485   91.4498   13.8589 C.ar    1  UNL1        0.0398
     14 C          66.3806   92.1954   14.2784 C.ar    1  UNL1        0.1022
     15 N          67.0337   93.1580   13.3313 N.ar    1  UNL1       -0.2224
     16 C          66.4546   93.3751   11.9647 C.ar    1  UNL1        0.1989
     17 N          65.2224   92.6294   11.5452 N.ar    1  UNL1       -0.2224
     18 C          64.5694   91.6668   12.4923 C.ar    1  UNL1        0.1022
     19 C          62.4428   85.5782   11.1920 C.ar    1  UNL1        0.0920
     20 C          62.1765   84.1094   11.0442 C.ar    1  UNL1        0.0204
     21 C          62.7000   83.1455   12.0673 C.ar    1  UNL1        0.0312
     22 C          63.4899   83.6503   13.2383 C.ar    1  UNL1        0.1454
     23 F          64.0135   82.6864   14.2614 F       1  UNL1       -0.2040
     24 C          63.7562   85.1190   13.3861 C.ar    1  UNL1        0.0951
     25 C          63.2327   86.0829   12.3630 C.ar    1  UNL1        0.1598
     26 F          63.4991   87.5517   12.5110 F       1  UNL1       -0.2026
     27 N          61.9192   86.5421   10.1689 N.pl3   1  UNL1       -0.2166
     28 H          61.8060   87.4923   10.4003 H       1  UNL1        0.1734
     29 S          61.5682   86.0582    8.7932 S.O2    1  UNL1        0.0540
     30 O          60.1180   86.3232    9.0701 O.2     1  UNL1       -0.1545
     31 O          63.0184   85.7933    8.5163 O.2     1  UNL1       -0.1545
     32 C          61.2172   85.5744    7.4175 C.3     1  UNL1        0.1724
     33 C          61.7893   84.0786    5.3715 C.3     1  UNL1        0.0019
     34 C          62.2177   84.7915    6.6198 C.3     1  UNL1        0.0273
@<TRIPOS>BOND
     1    33    34    1
     2    34    32    1
     3    32    29    1
     4    29    30    2
     5    29    31    2
     6    29    27    1
     7    27    19    1
     8    19    20   ar
     9    20    21   ar
    10    21    22   ar
    11    22    23    1
    12    22    24   ar
    13    24     1    1
    14     1     2    2
    15     1     3    1
    16     3     4   ar
    17     4     5   ar
    18     5     6   ar
    19     6     7   ar
    20     7     8   ar
    21     8     9   ar
    22     9    13    1
    23    13    14   ar
    24    14    15   ar
    25    15    16   ar
    26    16    17   ar
    27    17    18   ar
    28     9    10   ar
    29    10    11   ar
    30    24    25   ar
    31    25    26    1
    32    25    19   ar
    33    11     3   ar
    34    11     6    1
    35    18    13   ar
    36    27    28    1
    37     7    12    1
@<TRIPOS>MOLECULE
*****
 34 37 0 0 0
SMALL
GASTEIGER

@<TRIPOS>ATOM
      1 C          64.6585   85.5743   14.6763 C.2     1  UNL1        0.2015
      2 O          66.1351   85.3365   14.7893 O.2     1  UNL1       -0.2864
      3 C          63.9781   86.5268   15.6143 C.ar    1  UNL1        0.0611
      4 C          63.1477   86.1494   16.8051 C.ar    1  UNL1        0.1037
      5 N          62.6651   87.4133   17.4529 N.ar    1  UNL1       -0.2269
      6 C          63.1974   88.5718   16.6625 C.ar    1  UNL1        0.1407
      7 N          63.0479   90.0548   16.8307 N.ar    1  UNL1       -0.3374
      8 C          63.7099   90.9899   15.8626 C.ar    1  UNL1        0.0735
      9 C          64.5214   90.4419   14.7262 C.ar    1  UNL1        0.0201
     10 C          64.6709   88.9590   14.5580 C.ar    1  UNL1        0.0047
     11 C          64.0088   88.0239   15.5262 C.ar    1  UNL1        0.0386
     12 H          62.5153   90.4144   17.5765 H       1  UNL1        0.1674
     13 C          65.1835   91.3771   13.7581 C.ar    1  UNL1        0.0398
     14 C          66.5010   92.0053   14.1037 C.ar    1  UNL1        0.1022
     15 N          67.1630   92.9404   13.1356 N.ar    1  UNL1       -0.2224
     16 C          66.5075   93.2473   11.8218 C.ar    1  UNL1        0.1989
     17 N          65.1899   92.6191   11.4761 N.ar    1  UNL1       -0.2224
     18 C          64.5279   91.6840   12.4443 C.ar    1  UNL1        0.1022
     19 C          62.4650   84.9145   11.4353 C.ar    1  UNL1        0.0920
     20 C          62.2692   83.4299   11.5229 C.ar    1  UNL1        0.0204
     21 C          62.8698   82.6601   12.6616 C.ar    1  UNL1        0.0312
     22 C          63.6662   83.3749   13.7127 C.ar    1  UNL1        0.1454
     23 F          64.2668   82.6051   14.8515 F       1  UNL1       -0.2040
     24 C          63.8620   84.8594   13.6251 C.ar    1  UNL1        0.0951
     25 C          63.2614   85.6292   12.4864 C.ar    1  UNL1        0.1598
     26 F          63.4573   87.1138   12.3988 F       1  UNL1       -0.2026
     27 N          61.8644   85.6843   10.2966 N.pl3   1  UNL1       -0.2166
     28 H          61.6752   85.2325    9.4426 H       1  UNL1        0.1734
     29 S          61.5522   87.1424   10.4590 S.O2    1  UNL1        0.0540
     30 O          62.5126   87.4711    9.3547 O.2     1  UNL1       -0.1545
     31 O          60.5919   86.8137   11.5634 O.2     1  UNL1       -0.1545
     32 C          61.2400   88.6005   10.6215 C.3     1  UNL1        0.1724
     33 C          59.5894   90.4698   11.3509 C.3     1  UNL1        0.0019
     34 C          59.9925   89.0250   11.3382 C.3     1  UNL1        0.0273
@<TRIPOS>BOND
     1    33    34    1
     2    34    32    1
     3    32    29    1
     4    29    30    2
     5    29    31    2
     6    29    27    1
     7    27    19    1
     8    19    20   ar
     9    20    21   ar
    10    21    22   ar
    11    22    23    1
    12    22    24   ar
    13    24     1    1
    14     1     2    2
    15     1     3    1
    16     3     4   ar
    17     4     5   ar
    18     5     6   ar
    19     6     7   ar
    20     7     8   ar
    21     8     9   ar
    22     9    13    1
    23    13    14   ar
    24    14    15   ar
    25    15    16   ar
    26    16    17   ar
    27    17    18   ar
    28     9    10   ar
    29    10    11   ar
    30    24    25   ar
    31    25    26    1
    32    25    19   ar
    33    11     3   ar
    34    11     6    1
    35    18    13   ar
    36    27    28    1
    37     7    12    1
@<TRIPOS>MOLECULE
*****
 34 37 0 0 0
SMALL
GASTEIGER

@<TRIPOS>ATOM
      1 C          62.8281   90.2257   12.9549 C.2     1  UNL1        0.2015
      2 O          62.3463   89.8484   14.3243 O.2     1  UNL1       -0.2864
      3 C          62.0366   89.8266   11.7449 C.ar    1  UNL1        0.0611
      4 C          61.1793   90.7342   10.9134 C.ar    1  UNL1        0.1037
      5 N          60.5763   89.9183    9.8085 N.ar    1  UNL1       -0.2269
      6 C          61.0610   88.5066    9.9571 C.ar    1  UNL1        0.1407
      7 N          60.7972   87.2654    9.1572 N.ar    1  UNL1       -0.3374
      8 C          61.4359   85.9675    9.5542 C.ar    1  UNL1        0.0735
      9 C          62.3384   85.9109   10.7509 C.ar    1  UNL1        0.0201
     10 C          62.6023   87.1521   11.5507 C.ar    1  UNL1        0.0047
     11 C          61.9636   88.4499   11.1538 C.ar    1  UNL1        0.0386
     12 H          60.2048   87.3026    8.3718 H       1  UNL1        0.1674
     13 C          62.9771   84.6129   11.1478 C.ar    1  UNL1        0.0398
     14 C          62.8280   84.1016   12.5500 C.ar    1  UNL1        0.1022
     15 N          63.4667   82.8036   12.9469 N.ar    1  UNL1       -0.2224
     16 C          64.2545   82.0171   11.9416 C.ar    1  UNL1        0.1989
     17 N          64.4036   82.5285   10.5393 N.ar    1  UNL1       -0.2224
     18 C          63.7649   83.8264   10.1425 C.ar    1  UNL1        0.1022
     19 C          65.6542   92.5069   11.3548 C.ar    1  UNL1        0.0920
     20 C          66.6485   92.5552   12.4768 C.ar    1  UNL1        0.0204
     21 C          66.3695   91.8270   13.7581 C.ar    1  UNL1        0.0312
     22 C          65.0961   91.0505   13.9176 C.ar    1  UNL1        0.1454
     23 F          64.8170   90.3224   15.1989 F       1  UNL1       -0.2040
     24 C          64.1017   91.0022   12.7955 C.ar    1  UNL1        0.0951
     25 C          64.3807   91.7304   11.5142 C.ar    1  UNL1        0.1598
     26 F          63.3863   91.6821   10.3922 F       1  UNL1       -0.2026
     27 N          65.9332   93.2350   10.0734 N.pl3   1  UNL1       -0.2166
     28 H          65.7233   92.8106    9.2102 H       1  UNL1        0.1734
     29 S          66.5322   94.6098   10.1072 S.O2    1  UNL1        0.0540
     30 O          67.8554   94.0437    9.6845 O.2     1  UNL1       -0.1545
     31 O          65.2090   95.1759   10.5299 O.2     1  UNL1       -0.1545
     32 C          67.1311   95.9846   10.1410 C.3     1  UNL1        0.1724
     33 C          66.3968   96.7105    7.7568 C.3     1  UNL1        0.0019
     34 C          67.4136   96.7114    8.8595 C.3     1  UNL1        0.0273
@<TRIPOS>BOND
     1    33    34    1
     2    34    32    1
     3    32    29    1
     4    29    30    2
     5    29    31    2
     6    29    27    1
     7    27    19    1
     8    19    20   ar
     9    20    21   ar
    10    21    22   ar
    11    22    23    1
    12    22    24   ar
    13    24     1    1
    14     1     2    2
    15     1     3    1
    16     3     4   ar
    17     4     5   ar
    18     5     6   ar
    19     6     7   ar
    20     7     8   ar
    21     8     9   ar
    22     9    13    1
    23    13    14   ar
    24    14    15   ar
    25    15    16   ar
    26    16    17   ar
    27    17    18   ar
    28     9    10   ar
    29    10    11   ar
    30    24    25   ar
    31    25    26    1
    32    25    19   ar
    33    11     3   ar
    34    11     6    1
    35    18    13   ar
    36    27    28    1
    37     7    12    1
@<TRIPOS>MOLECULE
*****
 34 37 0 0 0
SMALL
GASTEIGER

@<TRIPOS>ATOM
      1 C          62.6919   85.6008    9.2394 C.2     1  UNL1        0.2015
      2 O          63.5754   85.5004    8.0315 O.2     1  UNL1       -0.2864
      3 C          61.5407   86.5624    9.2489 C.ar    1  UNL1        0.0611
      4 C          60.1595   86.2892    8.7314 C.ar    1  UNL1        0.1037
      5 N          59.3337   87.5239    8.9402 N.ar    1  UNL1       -0.2269
      6 C          60.2045   88.5601    9.5868 C.ar    1  UNL1        0.1407
      7 N          59.9316   89.9680   10.0265 N.ar    1  UNL1       -0.3374
      8 C          61.0227   90.7815   10.6570 C.ar    1  UNL1        0.0735
      9 C          62.3866   90.1873   10.8478 C.ar    1  UNL1        0.0201
     10 C          62.6595   88.7794   10.4081 C.ar    1  UNL1        0.0047
     11 C          61.5685   87.9658    9.7776 C.ar    1  UNL1        0.0386
     12 H          59.0364   90.3580    9.9013 H       1  UNL1        0.1674
     13 C          63.4777   91.0009   11.4784 C.ar    1  UNL1        0.0398
     14 C          63.7243   90.9087   12.9550 C.ar    1  UNL1        0.1022
     15 N          64.8154   91.7223   13.5856 N.ar    1  UNL1       -0.2224
     16 C          65.6599   92.6283   12.7394 C.ar    1  UNL1        0.1989
     17 N          65.4133   92.7205   11.2626 N.ar    1  UNL1       -0.2224
     18 C          64.3223   91.9069   10.6321 C.ar    1  UNL1        0.1022
     19 C          62.5915   84.2085   12.9545 C.ar    1  UNL1        0.0920
     20 C          63.4953   83.0173   12.8353 C.ar    1  UNL1        0.0204
     21 C          64.1312   82.6873   11.5175 C.ar    1  UNL1        0.0312
     22 C          63.8635   83.5484   10.3189 C.ar    1  UNL1        0.1454
     23 F          64.4994   83.2183    9.0011 F       1  UNL1       -0.2040
     24 C          62.9597   84.7396   10.4381 C.ar    1  UNL1        0.0951
     25 C          62.3238   85.0697   11.7559 C.ar    1  UNL1        0.1598
     26 F          61.4200   86.2609   11.8751 F       1  UNL1       -0.2026
     27 N          61.9556   84.5386   14.2723 N.pl3   1  UNL1       -0.2166
     28 H          60.9989   84.3565   14.4166 H       1  UNL1        0.1734
     29 S          62.7773   85.1461   15.3704 S.O2    1  UNL1        0.0540
     30 O          62.1226   84.2340   16.3650 O.2     1  UNL1       -0.1545
     31 O          63.4321   86.0582   14.3758 O.2     1  UNL1       -0.1545
     32 C          63.5990   85.7537   16.4683 C.3     1  UNL1        0.1724
     33 C          63.0105   88.1932   17.1412 C.3     1  UNL1        0.0019
     34 C          62.9713   86.7213   17.4274 C.3     1  UNL1        0.0273
@<TRIPOS>BOND
     1    33    34    1
     2    34    32    1
     3    32    29    1
     4    29    30    2
     5    29    31    2
     6    29    27    1
     7    27    19    1
     8    19    20   ar
     9    20    21   ar
    10    21    22   ar
    11    22    23    1
    12    22    24   ar
    13    24     1    1
    14     1     2    2
    15     1     3    1
    16     3     4   ar
    17     4     5   ar
    18     5     6   ar
    19     6     7   ar
    20     7     8   ar
    21     8     9   ar
    22     9    13    1
    23    13    14   ar
    24    14    15   ar
    25    15    16   ar
    26    16    17   ar
    27    17    18   ar
    28     9    10   ar
    29    10    11   ar
    30    24    25   ar
    31    25    26    1
    32    25    19   ar
    33    11     3   ar
    34    11     6    1
    35    18    13   ar
    36    27    28    1
    37     7    12    1
@<TRIPOS>MOLECULE
*****
 34 37 0 0 0
SMALL
GASTEIGER

@<TRIPOS>ATOM
      1 C          62.4063   89.7682   11.8245 C.2     1  UNL1        0.2015
      2 O          61.7800   90.7555   10.8850 O.2     1  UNL1       -0.2864
      3 C          63.2019   90.2523   13.0005 C.ar    1  UNL1        0.0611
      4 C          63.0492   89.7893   14.4190 C.ar    1  UNL1        0.1037
      5 N          64.0427   90.5353   15.2595 N.ar    1  UNL1       -0.2269
      6 C          64.8095   91.4592   14.3604 C.ar    1  UNL1        0.1407
      7 N          65.9137   92.4373   14.6326 N.ar    1  UNL1       -0.3374
      8 C          66.4982   93.2404   13.5087 C.ar    1  UNL1        0.0735
      9 C          65.9785   93.0655   12.1125 C.ar    1  UNL1        0.0201
     10 C          64.8743   92.0875   11.8402 C.ar    1  UNL1        0.0047
     11 C          64.2898   91.2843   12.9642 C.ar    1  UNL1        0.0386
     12 H          66.2548   92.5520   15.5490 H       1  UNL1        0.1674
     13 C          66.5631   93.8686   10.9885 C.ar    1  UNL1        0.0398
     14 C          66.4295   95.3626   10.9857 C.ar    1  UNL1        0.1022
     15 N          67.0141   96.1658    9.8617 N.ar    1  UNL1       -0.2224
     16 C          67.7322   95.4749    8.7406 C.ar    1  UNL1        0.1989
     17 N          67.8658   93.9808    8.7434 N.ar    1  UNL1       -0.2224
     18 C          67.2812   93.1777    9.8674 C.ar    1  UNL1        0.1022
     19 C          62.9102   85.8419   12.1096 C.ar    1  UNL1        0.0920
     20 C          61.8987   85.3534   11.1154 C.ar    1  UNL1        0.0204
     21 C          61.0565   86.3365   10.3576 C.ar    1  UNL1        0.0312
     22 C          61.2257   87.8080   10.5939 C.ar    1  UNL1        0.1454
     23 F          60.3834   88.7911    9.8362 F       1  UNL1       -0.2040
     24 C          62.2371   88.2965   11.5881 C.ar    1  UNL1        0.0951
     25 C          63.0793   87.3135   12.3459 C.ar    1  UNL1        0.1598
     26 F          64.0908   87.8020   13.3401 F       1  UNL1       -0.2026
     27 N          63.7524   84.8588   12.8673 N.pl3   1  UNL1       -0.2166
     28 H          64.7326   84.9504   12.8711 H       1  UNL1        0.1734
     29 S          63.1011   83.7363   13.6194 S.O2    1  UNL1        0.0540
     30 O          62.4129   84.7303   14.5071 O.2     1  UNL1       -0.1545
     31 O          63.7894   82.7422   12.7317 O.2     1  UNL1       -0.1545
     32 C          62.4499   82.6136   14.3714 C.3     1  UNL1        0.1724
     33 C          60.6525   80.7566   14.1049 C.3     1  UNL1        0.0019
     34 C          61.9055   81.4297   13.6285 C.3     1  UNL1        0.0273
@<TRIPOS>BOND
     1    33    34    1
     2    34    32    1
     3    32    29    1
     4    29    30    2
     5    29    31    2
     6    29    27    1
     7    27    19    1
     8    19    20   ar
     9    20    21   ar
    10    21    22   ar
    11    22    23    1
    12    22    24   ar
    13    24     1    1
    14     1     2    2
    15     1     3    1
    16     3     4   ar
    17     4     5   ar
    18     5     6   ar
    19     6     7   ar
    20     7     8   ar
    21     8     9   ar
    22     9    13    1
    23    13    14   ar
    24    14    15   ar
    25    15    16   ar
    26    16    17   ar
    27    17    18   ar
    28     9    10   ar
    29    10    11   ar
    30    24    25   ar
    31    25    26    1
    32    25    19   ar
    33    11     3   ar
    34    11     6    1
    35    18    13   ar
    36    27    28    1
    37     7    12    1
@<TRIPOS>MOLECULE
*****
 34 37 0 0 0
SMALL
GASTEIGER

@<TRIPOS>ATOM
      1 C          61.2489   89.8538   11.7392 C.2     1  UNL1        0.2015
      2 O          60.2390   89.8869   12.8477 O.2     1  UNL1       -0.2864
      3 C          60.9122   89.1891   10.4374 C.ar    1  UNL1        0.0611
      4 C          60.1327   89.8003    9.3109 C.ar    1  UNL1        0.1037
      5 N          60.0347   88.7853    8.2109 N.ar    1  UNL1       -0.2269
      6 C          60.7535   87.5468    8.6574 C.ar    1  UNL1        0.1407
      7 N          60.9843   86.2241    7.9887 N.ar    1  UNL1       -0.3374
      8 C          61.7575   85.1509    8.6962 C.ar    1  UNL1        0.0735
      9 C          62.2998   85.4005   10.0723 C.ar    1  UNL1        0.0201
     10 C          62.0690   86.7232   10.7409 C.ar    1  UNL1        0.0047
     11 C          61.2959   87.7963   10.0335 C.ar    1  UNL1        0.0386
     12 H          60.6284   86.0603    7.0856 H       1  UNL1        0.1674
     13 C          63.0730   84.3272   10.7797 C.ar    1  UNL1        0.0398
     14 C          63.9675   83.4095   10.0002 C.ar    1  UNL1        0.1022
     15 N          64.7407   82.3363   10.7076 N.ar    1  UNL1       -0.2224
     16 C          64.6193   82.1808   12.1946 C.ar    1  UNL1        0.1989
     17 N          63.7247   83.0985   12.9741 N.ar    1  UNL1       -0.2224
     18 C          62.9516   84.1717   12.2667 C.ar    1  UNL1        0.1022
     19 C          64.6550   90.9772   13.4382 C.ar    1  UNL1        0.0920
     20 C          65.2890   91.7490   12.3191 C.ar    1  UNL1        0.0204
     21 C          64.5762   91.8891   11.0067 C.ar    1  UNL1        0.0312
     22 C          63.2296   91.2574   10.8133 C.ar    1  UNL1        0.1454
     23 F          62.5168   91.3975    9.5010 F       1  UNL1       -0.2040
     24 C          62.5956   90.4856   11.9325 C.ar    1  UNL1        0.0951
     25 C          63.3084   90.3455   13.2449 C.ar    1  UNL1        0.1598
     26 F          62.6743   89.5736   14.3639 F       1  UNL1       -0.2026
     27 N          65.3677   90.8371   14.7506 N.pl3   1  UNL1       -0.2166
     28 H          65.2917   90.0013   15.2653 H       1  UNL1        0.1734
     29 S          66.1963   91.9704   15.2788 S.O2    1  UNL1        0.0540
     30 O          64.9612   92.6136   15.8363 O.2     1  UNL1       -0.1545
     31 O          67.4314   91.3272   14.7213 O.2     1  UNL1       -0.1545
     32 C          67.0250   93.1037   15.8069 C.3     1  UNL1        0.1724
     33 C          69.3443   94.2240   16.1477 C.3     1  UNL1        0.0019
     34 C          68.5200   93.0557   15.6942 C.3     1  UNL1        0.0273
@<TRIPOS>BOND
     1    33    34    1
     2    34    32    1
     3    32    29    1
     4    29    30    2
     5    29    31    2
     6    29    27    1
     7    27    19    1
     8    19    20   ar
     9    20    21   ar
    10    21    22   ar
    11    22    23    1
    12    22    24   ar
    13    24     1    1
    14     1     2    2
    15     1     3    1
    16     3     4   ar
    17     4     5   ar
    18     5     6   ar
    19     6     7   ar
    20     7     8   ar
    21     8     9   ar
    22     9    13    1
    23    13    14   ar
    24    14    15   ar
    25    15    16   ar
    26    16    17   ar
    27    17    18   ar
    28     9    10   ar
    29    10    11   ar
    30    24    25   ar
    31    25    26    1
    32    25    19   ar
    33    11     3   ar
    34    11     6    1
    35    18    13   ar
    36    27    28    1
    37     7    12    1
@<TRIPOS>MOLECULE
*****
 34 37 0 0 0
SMALL
GASTEIGER

@<TRIPOS>ATOM
      1 C          62.3751   89.7461   11.7717 C.2     1  UNL1        0.2015
      2 O          61.7586   90.7444   10.8373 O.2     1  UNL1       -0.2864
      3 C          63.1621   90.2164   12.9589 C.ar    1  UNL1        0.0611
      4 C          62.9974   89.7389   14.3712 C.ar    1  UNL1        0.1037
      5 N          63.9855   90.4742   15.2273 N.ar    1  UNL1       -0.2269
      6 C          64.7609   91.4062   14.3441 C.ar    1  UNL1        0.1407
      7 N          65.8646   92.3793   14.6353 N.ar    1  UNL1       -0.3374
      8 C          66.4594   93.1932   13.5245 C.ar    1  UNL1        0.0735
      9 C          65.9505   93.0338   12.1225 C.ar    1  UNL1        0.0201
     10 C          64.8468   92.0607   11.8313 C.ar    1  UNL1        0.0047
     11 C          64.2520   91.2469   12.9421 C.ar    1  UNL1        0.0386
     12 H          66.1986   92.4839   15.5555 H       1  UNL1        0.1674
     13 C          66.5454   93.8477   11.0117 C.ar    1  UNL1        0.0398
     14 C          67.3787   93.1818    9.9572 C.ar    1  UNL1        0.1022
     15 N          67.9736   93.9957    8.8464 N.ar    1  UNL1       -0.2224
     16 C          67.7350   95.4755    8.7902 C.ar    1  UNL1        0.1989
     17 N          66.9016   96.1415    9.8447 N.ar    1  UNL1       -0.2224
     18 C          66.3068   95.3276   10.9555 C.ar    1  UNL1        0.1022
     19 C          62.8563   85.8154   12.0327 C.ar    1  UNL1        0.0920
     20 C          61.8639   85.3400   11.0133 C.ar    1  UNL1        0.0204
     21 C          61.0419   86.3333   10.2468 C.ar    1  UNL1        0.0312
     22 C          61.2122   87.8020   10.4995 C.ar    1  UNL1        0.1454
     23 F          60.3902   88.7953    9.7329 F       1  UNL1       -0.2040
     24 C          62.2047   88.2774   11.5189 C.ar    1  UNL1        0.0951
     25 C          63.0267   87.2840   12.2854 C.ar    1  UNL1        0.1598
     26 F          64.0191   87.7595   13.3048 F       1  UNL1       -0.2026
     27 N          63.6783   84.8221   12.7993 N.pl3   1  UNL1       -0.2166
     28 H          64.2304   84.1642   12.3180 H       1  UNL1        0.1734
     29 S          63.6591   84.8311   14.2991 S.O2    1  UNL1        0.0540
     30 O          65.1542   84.9501   14.3176 O.2     1  UNL1       -0.1545
     31 O          62.1639   84.7120   14.2806 O.2     1  UNL1       -0.1545
     32 C          63.6397   84.8401   15.7989 C.3     1  UNL1        0.1724
     33 C          62.5990   86.3143   17.6681 C.3     1  UNL1        0.0019
     34 C          63.5729   86.1424   16.5403 C.3     1  UNL1        0.0273
@<TRIPOS>BOND
     1    33    34    1
     2    34    32    1
     3    32    29    1
     4    29    30    2
     5    29    31    2
     6    29    27    1
     7    27    19    1
     8    19    20   ar
     9    20    21   ar
    10    21    22   ar
    11    22    23    1
    12    22    24   ar
    13    24     1    1
    14     1     2    2
    15     1     3    1
    16     3     4   ar
    17     4     5   ar
    18     5     6   ar
    19     6     7   ar
    20     7     8   ar
    21     8     9   ar
    22     9    13    1
    23    13    14   ar
    24    14    15   ar
    25    15    16   ar
    26    16    17   ar
    27    17    18   ar
    28     9    10   ar
    29    10    11   ar
    30    24    25   ar
    31    25    26    1
    32    25    19   ar
    33    11     3   ar
    34    11     6    1
    35    18    13   ar
    36    27    28    1
    37     7    12    1
@<TRIPOS>MOLECULE
*****
 34 37 0 0 0
SMALL
GASTEIGER

@<TRIPOS>ATOM
      1 C          61.0144   90.1689   11.1512 C.2     1  UNL1        0.2015
      2 O          59.7550   90.7796   11.6904 O.2     1  UNL1       -0.2864
      3 C          60.9388   89.0573   10.1469 C.ar    1  UNL1        0.0611
      4 C          60.3933   89.1634    8.7537 C.ar    1  UNL1        0.1037
      5 N          60.5127   87.8161    8.1053 N.ar    1  UNL1       -0.2269
      6 C          61.1320   86.8772    9.0978 C.ar    1  UNL1        0.1407
      7 N          61.4902   85.4230    9.0156 N.ar    1  UNL1       -0.3374
      8 C          62.1117   84.7358   10.1952 C.ar    1  UNL1        0.0735
      9 C          62.3750   85.5030   11.4571 C.ar    1  UNL1        0.0201
     10 C          62.0168   86.9572   11.5393 C.ar    1  UNL1        0.0047
     11 C          61.3954   87.6444   10.3596 C.ar    1  UNL1        0.0386
     12 H          61.3174   84.9195    8.1874 H       1  UNL1        0.1674
     13 C          62.9966   84.8158   12.6367 C.ar    1  UNL1        0.0398
     14 C          63.8364   85.5972   13.6032 C.ar    1  UNL1        0.1022
     15 N          64.4579   84.9100   14.7828 N.ar    1  UNL1       -0.2224
     16 C          64.2396   83.4413   14.9960 C.ar    1  UNL1        0.1989
     17 N          63.3997   82.6599   14.0294 N.ar    1  UNL1       -0.2224
     18 C          62.7782   83.3471   12.8499 C.ar    1  UNL1        0.1022
     19 C          64.0997   90.9835   13.5108 C.ar    1  UNL1        0.0920
     20 C          65.0200   91.6717   12.5467 C.ar    1  UNL1        0.0204
     21 C          64.6050   91.8590   11.1174 C.ar    1  UNL1        0.0312
     22 C          63.2699   91.3581   10.6522 C.ar    1  UNL1        0.1454
     23 F          62.8550   91.5453    9.2230 F       1  UNL1       -0.2040
     24 C          62.3497   90.6698   11.6164 C.ar    1  UNL1        0.0951
     25 C          62.7646   90.4826   13.0456 C.ar    1  UNL1        0.1598
     26 F          61.8443   89.7943   14.0097 F       1  UNL1       -0.2026
     27 N          64.5147   90.7962   14.9400 N.pl3   1  UNL1       -0.2166
     28 H          65.3039   91.2698   15.2896 H       1  UNL1        0.1734
     29 S          63.7272   89.8874   15.8367 S.O2    1  UNL1        0.0540
     30 O          64.2722   88.6954   15.1072 O.2     1  UNL1       -0.1545
     31 O          63.1822   91.0794   16.5662 O.2     1  UNL1       -0.1545
     32 C          62.9397   88.9787   16.7334 C.3     1  UNL1        0.1724
     33 C          62.6366   86.6509   17.8469 C.3     1  UNL1        0.0019
     34 C          63.2764   87.5186   16.8039 C.3     1  UNL1        0.0273
@<TRIPOS>BOND
     1    33    34    1
     2    34    32    1
     3    32    29    1
     4    29    30    2
     5    29    31    2
     6    29    27    1
     7    27    19    1
     8    19    20   ar
     9    20    21   ar
    10    21    22   ar
    11    22    23    1
    12    22    24   ar
    13    24     1    1
    14     1     2    2
    15     1     3    1
    16     3     4   ar
    17     4     5   ar
    18     5     6   ar
    19     6     7   ar
    20     7     8   ar
    21     8     9   ar
    22     9    13    1
    23    13    14   ar
    24    14    15   ar
    25    15    16   ar
    26    16    17   ar
    27    17    18   ar
    28     9    10   ar
    29    10    11   ar
    30    24    25   ar
    31    25    26    1
    32    25    19   ar
    33    11     3   ar
    34    11     6    1
    35    18    13   ar
    36    27    28    1
    37     7    12    1
@<TRIPOS>MOLECULE
*****
 34 37 0 0 0
SMALL
GASTEIGER

@<TRIPOS>ATOM
      1 C          62.5352   89.8397   13.0433 C.2     1  UNL1        0.2015
      2 O          61.4268   89.7860   14.0524 O.2     1  UNL1       -0.2864
      3 C          62.3224   89.2867   11.6653 C.ar    1  UNL1        0.0611
      4 C          61.9800   90.0809   10.4397 C.ar    1  UNL1        0.1037
      5 N          61.8606   89.1275    9.2879 N.ar    1  UNL1       -0.2269
      6 C          62.1292   87.7440    9.8016 C.ar    1  UNL1        0.1407
      7 N          62.1507   86.4074    9.1213 N.ar    1  UNL1       -0.3374
      8 C          62.4576   85.1691    9.9103 C.ar    1  UNL1        0.0735
      9 C          62.7429   85.2675   11.3796 C.ar    1  UNL1        0.0201
     10 C          62.7214   86.6042   12.0599 C.ar    1  UNL1        0.0047
     11 C          62.4145   87.8424   11.2709 C.ar    1  UNL1        0.0386
     12 H          61.9634   86.3428    8.1569 H       1  UNL1        0.1674
     13 C          63.0498   84.0292   12.1686 C.ar    1  UNL1        0.0398
     14 C          63.5670   84.1431   13.5720 C.ar    1  UNL1        0.1022
     15 N          63.8739   82.9047   14.3610 N.ar    1  UNL1       -0.2224
     16 C          63.6636   81.5526   13.7465 C.ar    1  UNL1        0.1989
     17 N          63.1464   81.4388   12.3431 N.ar    1  UNL1       -0.2224
     18 C          62.8395   82.6771   11.5541 C.ar    1  UNL1        0.1022
     19 C          65.6384   92.3127   13.1094 C.ar    1  UNL1        0.0920
     20 C          66.4992   91.6597   14.1499 C.ar    1  UNL1        0.0204
     21 C          66.0386   90.4000   14.8216 C.ar    1  UNL1        0.0312
     22 C          64.7173   89.7933   14.4527 C.ar    1  UNL1        0.1454
     23 F          64.2567   88.5337   15.1244 F       1  UNL1       -0.2040
     24 C          63.8566   90.4464   13.4122 C.ar    1  UNL1        0.0951
     25 C          64.3171   91.7060   12.7406 C.ar    1  UNL1        0.1598
     26 F          63.4563   92.3590   11.7000 F       1  UNL1       -0.2026
     27 N          66.0990   93.5724   12.4378 N.pl3   1  UNL1       -0.2166
     28 H          66.0821   94.4261   12.9279 H       1  UNL1        0.1734
     29 S          66.5854   93.5314   11.0194 S.O2    1  UNL1        0.0540
     30 O          65.4812   94.4621   10.6139 O.2     1  UNL1       -0.1545
     31 O          67.6896   92.6006   11.4250 O.2     1  UNL1       -0.1545
     32 C          67.0718   93.4903    9.6011 C.3     1  UNL1        0.1724
     33 C          68.8899   92.0599    8.4183 C.3     1  UNL1        0.0019
     34 C          68.5158   93.2055    9.3114 C.3     1  UNL1        0.0273
@<TRIPOS>BOND
     1    33    34    1
     2    34    32    1
     3    32    29    1
     4    29    30    2
     5    29    31    2
     6    29    27    1
     7    27    19    1
     8    19    20   ar
     9    20    21   ar
    10    21    22   ar
    11    22    23    1
    12    22    24   ar
    13    24     1    1
    14     1     2    2
    15     1     3    1
    16     3     4   ar
    17     4     5   ar
    18     5     6   ar
    19     6     7   ar
    20     7     8   ar
    21     8     9   ar
    22     9    13    1
    23    13    14   ar
    24    14    15   ar
    25    15    16   ar
    26    16    17   ar
    27    17    18   ar
    28     9    10   ar
    29    10    11   ar
    30    24    25   ar
    31    25    26    1
    32    25    19   ar
    33    11     3   ar
    34    11     6    1
    35    18    13   ar
    36    27    28    1
    37     7    12    1
