@<TRIPOS>MOLECULE
*****
 32 35 0 0 0
SMALL
GASTEIGER

@<TRIPOS>ATOM
      1 N          63.1461   88.9935   12.5000 N.pl3   1  UNL1       -0.2872
      2 O          64.6299   82.9325   15.3830 O.2     1  UNL1       -0.2699
      3 C          64.0103   83.2642   14.0578 C.2     1  UNL1        0.2490
      4 N          63.7943   84.6965   13.6683 N.am    1  UNL1       -0.2760
      5 C          63.1747   85.0281   12.3431 C.3     1  UNL1        0.0954
      6 C          62.9587   86.4606   11.9537 C.3     1  UNL1        0.0416
      7 C          63.3622   87.5612   12.8894 C.3     1  UNL1        0.0807
      8 C          63.9817   87.2296   14.2146 C.3     1  UNL1        0.0416
      9 C          64.1977   85.7972   14.6041 C.3     1  UNL1        0.0954
     10 C          63.6069   82.1634   13.1220 C.ar    1  UNL1        0.0537
     11 C          63.8940   82.2835   11.6547 C.ar    1  UNL1        0.0068
     12 C          63.4906   81.1828   10.7190 C.ar    1  UNL1        0.0298
     13 C          62.7999   79.9619   11.2506 C.ar    1  UNL1        0.1401
     14 F          62.3964   78.8612   10.3148 F       1  UNL1       -0.2042
     15 C          62.5127   79.8419   12.7179 C.ar    1  UNL1        0.0298
     16 C          62.9162   80.9426   13.6536 C.ar    1  UNL1        0.0068
     17 C          64.0534   90.0614   13.0353 C.ar    1  UNL1        0.0515
     18 C          64.3698   91.2655   12.1987 C.ar    1  UNL1        0.0148
     19 C          65.2770   92.3333   12.7340 C.ar    1  UNL1        0.0051
     20 C          65.8679   92.1971   14.1059 C.ar    1  UNL1        0.0715
     21 C          65.5515   90.9929   14.9426 C.ar    1  UNL1        0.0051
     22 C          64.6442   89.9251   14.4073 C.ar    1  UNL1        0.0148
     23 C          66.7751   93.2649   14.6413 C.3     1  UNL1        0.4186
     24 F          67.6824   94.3328   15.1766 F       1  UNL1       -0.1659
     25 F          67.1711   92.3619   15.7716 F       1  UNL1       -0.1659
     26 F          66.3792   94.1680   13.5109 F       1  UNL1       -0.1659
     27 C          62.0227   89.3581   11.5752 C.ar    1  UNL1        0.0710
     28 C          62.1212   89.0384   10.1130 C.ar    1  UNL1        0.0180
     29 C          60.9979   89.4029    9.1882 C.ar    1  UNL1        0.0220
     30 C          59.7760   90.0872    9.7257 C.ar    1  UNL1        0.0990
     31 N          59.6775   90.4069   11.1879 N.ar    1  UNL1       -0.2410
     32 C          60.8008   90.0423   12.1126 C.ar    1  UNL1        0.1136
@<TRIPOS>BOND
     1     2     3    2
     2     3    10    1
     3    10    11   ar
     4    11    12   ar
     5    12    13   ar
     6    13    14    1
     7    13    15   ar
     8    15    16   ar
     9     3     4   am
    10     4     5    1
    11     5     6    1
    12     6     7    1
    13     7     1    1
    14     1    17    1
    15    17    18   ar
    16    18    19   ar
    17    19    20   ar
    18    20    23    1
    19    23    24    1
    20    23    25    1
    21    23    26    1
    22    20    21   ar
    23    21    22   ar
    24     1    27    1
    25    27    28   ar
    26    28    29   ar
    27    29    30   ar
    28    30    31   ar
    29    31    32   ar
    30     7     8    1
    31     8     9    1
    32    16    10   ar
    33     9     4    1
    34    22    17   ar
    35    32    27   ar
@<TRIPOS>MOLECULE
*****
 32 35 0 0 0
SMALL
GASTEIGER

@<TRIPOS>ATOM
      1 N          62.7437   88.6077   11.4522 N.pl3   1  UNL1       -0.2872
      2 O          66.1537   94.1321   13.7110 O.2     1  UNL1       -0.2699
      3 C          65.8541   93.6650   12.3174 C.2     1  UNL1        0.2490
      4 N          65.0765   92.4007   12.1011 N.am    1  UNL1       -0.2760
      5 C          64.7768   91.9336   10.7075 C.3     1  UNL1        0.0954
      6 C          63.9992   90.6692   10.4912 C.3     1  UNL1        0.0416
      7 C          63.5213   89.8720   11.6685 C.3     1  UNL1        0.0807
      8 C          63.8209   90.3391   13.0621 C.3     1  UNL1        0.0416
      9 C          64.5985   91.6034   13.2784 C.3     1  UNL1        0.0954
     10 C          66.3320   94.4623   11.1401 C.ar    1  UNL1        0.0537
     11 C          67.2717   93.8444   10.1476 C.ar    1  UNL1        0.0068
     12 C          67.7496   94.6417    8.9703 C.ar    1  UNL1        0.0298
     13 C          67.2879   96.0569    8.7857 C.ar    1  UNL1        0.1401
     14 F          67.7659   96.8542    7.6084 F       1  UNL1       -0.2042
     15 C          66.3482   96.6747    9.7782 C.ar    1  UNL1        0.0298
     16 C          65.8703   95.8775   10.9554 C.ar    1  UNL1        0.0068
     17 C          63.0302   87.3980   12.2916 C.ar    1  UNL1        0.0515
     18 C          62.4720   86.0626   11.8980 C.ar    1  UNL1        0.0148
     19 C          62.7585   84.8530   12.7375 C.ar    1  UNL1        0.0051
     20 C          63.6032   84.9787   13.9705 C.ar    1  UNL1        0.0715
     21 C          64.1616   86.3142   14.3642 C.ar    1  UNL1        0.0051
     22 C          63.8751   87.5238   13.5247 C.ar    1  UNL1        0.0148
     23 C          63.8898   83.7691   14.8100 C.3     1  UNL1        0.4186
     24 F          64.1763   82.5594   15.6494 F       1  UNL1       -0.1659
     25 F          63.8127   82.9027   13.5879 F       1  UNL1       -0.1659
     26 F          63.9669   84.6354   16.0321 F       1  UNL1       -0.1659
     27 C          61.6796   88.5529   10.3964 C.ar    1  UNL1        0.0710
     28 C          61.6429   87.4088    9.4271 C.ar    1  UNL1        0.0180
     29 C          60.5787   87.3541    8.3714 C.ar    1  UNL1        0.0220
     30 C          59.5513   88.4436    8.2849 C.ar    1  UNL1        0.0990
     31 N          59.5880   89.5877    9.2542 N.ar    1  UNL1       -0.2410
     32 C          60.6521   89.6424   10.3099 C.ar    1  UNL1        0.1136
@<TRIPOS>BOND
     1     2     3    2
     2     3    10    1
     3    10    11   ar
     4    11    12   ar
     5    12    13   ar
     6    13    14    1
     7    13    15   ar
     8    15    16   ar
     9     3     4   am
    10     4     5    1
    11     5     6    1
    12     6     7    1
    13     7     1    1
    14     1    17    1
    15    17    18   ar
    16    18    19   ar
    17    19    20   ar
    18    20    23    1
    19    23    24    1
    20    23    25    1
    21    23    26    1
    22    20    21   ar
    23    21    22   ar
    24     1    27    1
    25    27    28   ar
    26    28    29   ar
    27    29    30   ar
    28    30    31   ar
    29    31    32   ar
    30     7     8    1
    31     8     9    1
    32    16    10   ar
    33     9     4    1
    34    22    17   ar
    35    32    27   ar
@<TRIPOS>MOLECULE
*****
 32 35 0 0 0
SMALL
GASTEIGER

@<TRIPOS>ATOM
      1 N          63.2038   89.0807   12.6946 N.pl3   1  UNL1       -0.2872
      2 O          66.8459   94.8848   13.2397 O.2     1  UNL1       -0.2699
      3 C          66.1884   94.2459   12.0525 C.2     1  UNL1        0.2490
      4 N          65.4422   92.9546   12.2130 N.am    1  UNL1       -0.2760
      5 C          64.7847   92.3158   11.0258 C.3     1  UNL1        0.0954
      6 C          64.0385   91.0244   11.1863 C.3     1  UNL1        0.0416
      7 C          63.9499   90.3720   12.5341 C.3     1  UNL1        0.0807
      8 C          64.6074   91.0109   13.7213 C.3     1  UNL1        0.0416
      9 C          65.3536   92.3021   13.5608 C.3     1  UNL1        0.0954
     10 C          66.2770   94.8984   10.7047 C.ar    1  UNL1        0.0537
     11 C          67.1959   94.3388    9.6595 C.ar    1  UNL1        0.0068
     12 C          67.2845   94.9913    8.3118 C.ar    1  UNL1        0.0298
     13 C          66.4543   96.2034    8.0093 C.ar    1  UNL1        0.1401
     14 F          66.5429   96.8559    6.6615 F       1  UNL1       -0.2042
     15 C          65.5355   96.7630    9.0545 C.ar    1  UNL1        0.0298
     16 C          65.4468   96.1105   10.4022 C.ar    1  UNL1        0.0068
     17 C          62.2932   88.6001   11.6037 C.ar    1  UNL1        0.0515
     18 C          61.1150   89.4309   11.1898 C.ar    1  UNL1        0.0148
     19 C          60.2044   88.9503   10.0990 C.ar    1  UNL1        0.0051
     20 C          60.4721   87.6387    9.4221 C.ar    1  UNL1        0.0715
     21 C          61.6504   86.8078    9.8361 C.ar    1  UNL1        0.0051
     22 C          62.5609   87.2884   10.9269 C.ar    1  UNL1        0.0148
     23 C          59.5616   87.1581    8.3313 C.3     1  UNL1        0.4186
     24 F          58.6510   86.6774    7.2405 F       1  UNL1       -0.1659
     25 F          59.0096   88.5447    8.1811 F       1  UNL1       -0.1659
     26 F          60.1135   85.7714    8.4816 F       1  UNL1       -0.1659
     27 C          63.3681   88.2700   13.9459 C.ar    1  UNL1        0.0710
     28 C          63.9144   86.8752   13.8695 C.ar    1  UNL1        0.0180
     29 C          64.0788   86.0646   15.1209 C.ar    1  UNL1        0.0220
     30 C          63.6968   86.6488   16.4485 C.ar    1  UNL1        0.0990
     31 N          63.1505   88.0436   16.5249 N.ar    1  UNL1       -0.2410
     32 C          62.9862   88.8543   15.2736 C.ar    1  UNL1        0.1136
@<TRIPOS>BOND
     1     2     3    2
     2     3    10    1
     3    10    11   ar
     4    11    12   ar
     5    12    13   ar
     6    13    14    1
     7    13    15   ar
     8    15    16   ar
     9     3     4   am
    10     4     5    1
    11     5     6    1
    12     6     7    1
    13     7     1    1
    14     1    17    1
    15    17    18   ar
    16    18    19   ar
    17    19    20   ar
    18    20    23    1
    19    23    24    1
    20    23    25    1
    21    23    26    1
    22    20    21   ar
    23    21    22   ar
    24     1    27    1
    25    27    28   ar
    26    28    29   ar
    27    29    30   ar
    28    30    31   ar
    29    31    32   ar
    30     7     8    1
    31     8     9    1
    32    16    10   ar
    33     9     4    1
    34    22    17   ar
    35    32    27   ar
@<TRIPOS>MOLECULE
*****
 32 35 0 0 0
SMALL
GASTEIGER

@<TRIPOS>ATOM
      1 N          62.0569   89.0267   11.5733 N.pl3   1  UNL1       -0.2872
      2 O          67.2787   93.1236   13.3614 O.2     1  UNL1       -0.2699
      3 C          66.4648   93.0627   12.1029 C.2     1  UNL1        0.2490
      4 N          65.3628   92.0537   11.9705 N.am    1  UNL1       -0.2760
      5 C          64.5489   91.9929   10.7120 C.3     1  UNL1        0.0954
      6 C          63.4469   90.9838   10.5796 C.3     1  UNL1        0.0416
      7 C          63.1589   90.0357   11.7057 C.3     1  UNL1        0.0807
      8 C          63.9728   90.0965   12.9642 C.3     1  UNL1        0.0416
      9 C          65.0748   91.1055   13.0966 C.3     1  UNL1        0.0954
     10 C          66.7528   94.0109   10.9768 C.ar    1  UNL1        0.0537
     11 C          67.4825   93.5286    9.7582 C.ar    1  UNL1        0.0068
     12 C          67.7705   94.4767    8.6322 C.ar    1  UNL1        0.0298
     13 C          67.3289   95.9073    8.7248 C.ar    1  UNL1        0.1401
     14 F          67.6170   96.8555    7.5987 F       1  UNL1       -0.2042
     15 C          66.5993   96.3896    9.9434 C.ar    1  UNL1        0.0298
     16 C          66.3113   95.4415   11.0694 C.ar    1  UNL1        0.0068
     17 C          62.3843   87.5927   11.2791 C.ar    1  UNL1        0.0515
     18 C          62.8167   86.6795   12.3878 C.ar    1  UNL1        0.0148
     19 C          63.1442   85.2456   12.0936 C.ar    1  UNL1        0.0051
     20 C          63.0392   84.7248   10.6909 C.ar    1  UNL1        0.0715
     21 C          62.6068   85.6380    9.5822 C.ar    1  UNL1        0.0051
     22 C          62.2794   87.0719    9.8763 C.ar    1  UNL1        0.0148
     23 C          63.3666   83.2908   10.3968 C.3     1  UNL1        0.4186
     24 F          63.6941   81.8568   10.1027 F       1  UNL1       -0.1659
     25 F          62.5299   82.8602   11.5649 F       1  UNL1       -0.1659
     26 F          64.2034   83.7214    9.2287 F       1  UNL1       -0.1659
     27 C          60.6274   89.4517   11.7349 C.ar    1  UNL1        0.0710
     28 C          59.6479   88.5441   12.4182 C.ar    1  UNL1        0.0180
     29 C          58.2185   88.9691   12.5799 C.ar    1  UNL1        0.0220
     30 C          57.7686   90.3016   12.0583 C.ar    1  UNL1        0.0990
     31 N          58.7482   91.2091   11.3750 N.ar    1  UNL1       -0.2410
     32 C          60.1776   90.7841   11.2133 C.ar    1  UNL1        0.1136
@<TRIPOS>BOND
     1     2     3    2
     2     3    10    1
     3    10    11   ar
     4    11    12   ar
     5    12    13   ar
     6    13    14    1
     7    13    15   ar
     8    15    16   ar
     9     3     4   am
    10     4     5    1
    11     5     6    1
    12     6     7    1
    13     7     1    1
    14     1    17    1
    15    17    18   ar
    16    18    19   ar
    17    19    20   ar
    18    20    23    1
    19    23    24    1
    20    23    25    1
    21    23    26    1
    22    20    21   ar
    23    21    22   ar
    24     1    27    1
    25    27    28   ar
    26    28    29   ar
    27    29    30   ar
    28    30    31   ar
    29    31    32   ar
    30     7     8    1
    31     8     9    1
    32    16    10   ar
    33     9     4    1
    34    22    17   ar
    35    32    27   ar
@<TRIPOS>MOLECULE
*****
 32 35 0 0 0
SMALL
GASTEIGER

@<TRIPOS>ATOM
      1 N          62.0043   87.6830   10.3742 N.pl3   1  UNL1       -0.2872
      2 O          65.2566   92.6780   13.7979 O.2     1  UNL1       -0.2699
      3 C          65.1272   92.4198   12.3259 C.2     1  UNL1        0.2490
      4 N          64.3465   91.2356   11.8380 N.am    1  UNL1       -0.2760
      5 C          64.2171   90.9774   10.3661 C.3     1  UNL1        0.0954
      6 C          63.4363   89.7931    9.8782 C.3     1  UNL1        0.0416
      7 C          62.7850   88.8672   10.8622 C.3     1  UNL1        0.0807
      8 C          62.9144   89.1254   12.3341 C.3     1  UNL1        0.0416
      9 C          63.6951   90.3096   12.8220 C.3     1  UNL1        0.0954
     10 C          65.7786   93.3459   11.3419 C.ar    1  UNL1        0.0537
     11 C          65.3306   94.7742   11.2462 C.ar    1  UNL1        0.0068
     12 C          65.9820   95.7001   10.2622 C.ar    1  UNL1        0.0298
     13 C          67.0814   95.1978    9.3740 C.ar    1  UNL1        0.1401
     14 F          67.7328   96.1238    8.3899 F       1  UNL1       -0.2042
     15 C          67.5294   93.7695    9.4697 C.ar    1  UNL1        0.0298
     16 C          66.8780   92.8435   10.4536 C.ar    1  UNL1        0.0068
     17 C          62.3229   86.3107   10.8893 C.ar    1  UNL1        0.0515
     18 C          62.8514   85.2630    9.9550 C.ar    1  UNL1        0.0148
     19 C          63.1700   83.8907   10.4700 C.ar    1  UNL1        0.0051
     20 C          62.9601   83.5661   11.9193 C.ar    1  UNL1        0.0715
     21 C          62.4316   84.6138   12.8537 C.ar    1  UNL1        0.0051
     22 C          62.1130   85.9861   12.3387 C.ar    1  UNL1        0.0148
     23 C          63.2788   82.1938   12.4344 C.3     1  UNL1        0.4186
     24 F          63.5974   80.8215   12.9494 F       1  UNL1       -0.1659
     25 F          62.8167   81.5995   11.1369 F       1  UNL1       -0.1659
     26 F          63.7408   82.7880   13.7318 F       1  UNL1       -0.1659
     27 C          60.9049   87.8711    9.3712 C.ar    1  UNL1        0.0710
     28 C          60.1827   86.6787    8.8175 C.ar    1  UNL1        0.0180
     29 C          59.0833   86.8668    7.8146 C.ar    1  UNL1        0.0220
     30 C          58.7062   88.2473    7.3652 C.ar    1  UNL1        0.0990
     31 N          59.4283   89.4397    7.9189 N.ar    1  UNL1       -0.2410
     32 C          60.5277   89.2516    8.9219 C.ar    1  UNL1        0.1136
@<TRIPOS>BOND
     1     2     3    2
     2     3    10    1
     3    10    11   ar
     4    11    12   ar
     5    12    13   ar
     6    13    14    1
     7    13    15   ar
     8    15    16   ar
     9     3     4   am
    10     4     5    1
    11     5     6    1
    12     6     7    1
    13     7     1    1
    14     1    17    1
    15    17    18   ar
    16    18    19   ar
    17    19    20   ar
    18    20    23    1
    19    23    24    1
    20    23    25    1
    21    23    26    1
    22    20    21   ar
    23    21    22   ar
    24     1    27    1
    25    27    28   ar
    26    28    29   ar
    27    29    30   ar
    28    30    31   ar
    29    31    32   ar
    30     7     8    1
    31     8     9    1
    32    16    10   ar
    33     9     4    1
    34    22    17   ar
    35    32    27   ar
@<TRIPOS>MOLECULE
*****
 32 35 0 0 0
SMALL
GASTEIGER

@<TRIPOS>ATOM
      1 N          62.7788   88.5599   11.9260 N.pl3   1  UNL1       -0.2872
      2 O          64.5379   82.8374   15.3036 O.2     1  UNL1       -0.2699
      3 C          63.8714   83.0268   13.9732 C.2     1  UNL1        0.2490
      4 N          63.5982   84.4101   13.4614 N.am    1  UNL1       -0.2760
      5 C          62.9316   84.5995   12.1311 C.3     1  UNL1        0.0954
      6 C          62.6585   85.9828   11.6193 C.3     1  UNL1        0.0416
      7 C          63.0519   87.1766   12.4378 C.3     1  UNL1        0.0807
      8 C          63.7185   86.9872   13.7681 C.3     1  UNL1        0.0416
      9 C          63.9916   85.6039   14.2800 C.3     1  UNL1        0.0954
     10 C          63.4779   81.8329   13.1547 C.ar    1  UNL1        0.0537
     11 C          62.8409   80.6470   13.8163 C.ar    1  UNL1        0.0068
     12 C          62.4475   79.4532   12.9977 C.ar    1  UNL1        0.0298
     13 C          62.6911   79.4453   11.5177 C.ar    1  UNL1        0.1401
     14 F          62.2977   78.2514   10.6991 F       1  UNL1       -0.2042
     15 C          63.3282   80.6313   10.8561 C.ar    1  UNL1        0.0298
     16 C          63.7216   81.8251   11.6747 C.ar    1  UNL1        0.0068
     17 C          61.9063   88.7552   10.7216 C.ar    1  UNL1        0.0515
     18 C          61.8739   87.7142    9.6422 C.ar    1  UNL1        0.0148
     19 C          61.0014   87.9096    8.4377 C.ar    1  UNL1        0.0051
     20 C          60.1614   89.1460    8.3127 C.ar    1  UNL1        0.0715
     21 C          60.1939   90.1871    9.3921 C.ar    1  UNL1        0.0051
     22 C          61.0663   89.9917   10.5966 C.ar    1  UNL1        0.0148
     23 C          59.2890   89.3413    7.1082 C.3     1  UNL1        0.4186
     24 F          58.4165   89.5367    5.9038 F       1  UNL1       -0.1659
     25 F          60.2500   90.3637    6.5779 F       1  UNL1       -0.1659
     26 F          58.3279   88.3190    7.6386 F       1  UNL1       -0.1659
     27 C          63.3781   89.7478   12.6186 C.ar    1  UNL1        0.0710
     28 C          64.2266   90.7158   11.8486 C.ar    1  UNL1        0.0180
     29 C          64.8258   91.9037   12.5412 C.ar    1  UNL1        0.0220
     30 C          64.5765   92.1236   14.0039 C.ar    1  UNL1        0.0990
     31 N          63.7280   91.1556   14.7740 N.ar    1  UNL1       -0.2410
     32 C          63.1288   89.9677   14.0813 C.ar    1  UNL1        0.1136
@<TRIPOS>BOND
     1     2     3    2
     2     3    10    1
     3    10    11   ar
     4    11    12   ar
     5    12    13   ar
     6    13    14    1
     7    13    15   ar
     8    15    16   ar
     9     3     4   am
    10     4     5    1
    11     5     6    1
    12     6     7    1
    13     7     1    1
    14     1    17    1
    15    17    18   ar
    16    18    19   ar
    17    19    20   ar
    18    20    23    1
    19    23    24    1
    20    23    25    1
    21    23    26    1
    22    20    21   ar
    23    21    22   ar
    24     1    27    1
    25    27    28   ar
    26    28    29   ar
    27    29    30   ar
    28    30    31   ar
    29    31    32   ar
    30     7     8    1
    31     8     9    1
    32    16    10   ar
    33     9     4    1
    34    22    17   ar
    35    32    27   ar
@<TRIPOS>MOLECULE
*****
 32 35 0 0 0
SMALL
GASTEIGER

@<TRIPOS>ATOM
      1 N          61.8585   94.6138   -0.1994 N.pl3   1  UNL1       -0.2872
      2 O          57.6616   96.5179   -5.2994 O.2     1  UNL1       -0.2699
      3 C          58.0767   95.1565   -4.8258 C.2     1  UNL1        0.2490
      4 N          59.0222   95.0208   -3.6692 N.am    1  UNL1       -0.2760
      5 C          59.4373   93.6595   -3.1956 C.3     1  UNL1        0.0954
      6 C          60.3828   93.5238   -2.0389 C.3     1  UNL1        0.0416
      7 C          60.9131   94.7495   -1.3560 C.3     1  UNL1        0.0807
      8 C          60.4979   96.1109   -1.8296 C.3     1  UNL1        0.0416
      9 C          59.5525   96.2466   -2.9862 C.3     1  UNL1        0.0954
     10 C          57.5464   93.9308   -5.5088 C.ar    1  UNL1        0.0537
     11 C          56.4328   93.1454   -4.8819 C.ar    1  UNL1        0.0068
     12 C          55.9026   91.9198   -5.5650 C.ar    1  UNL1        0.0298
     13 C          56.4859   91.4795   -6.8749 C.ar    1  UNL1        0.1401
     14 F          55.9556   90.2538   -7.5579 F       1  UNL1       -0.2042
     15 C          57.5995   92.2649   -7.5017 C.ar    1  UNL1        0.0298
     16 C          58.1298   93.4905   -6.8187 C.ar    1  UNL1        0.0068
     17 C          61.4653   93.8027    0.9996 C.ar    1  UNL1        0.0515
     18 C          62.4410   92.8375    1.6049 C.ar    1  UNL1        0.0148
     19 C          62.0477   92.0264    2.8039 C.ar    1  UNL1        0.0051
     20 C          60.6789   92.1805    3.3975 C.ar    1  UNL1        0.0715
     21 C          59.7031   93.1457    2.7921 C.ar    1  UNL1        0.0051
     22 C          60.0964   93.9568    1.5932 C.ar    1  UNL1        0.0148
     23 C          60.2857   91.3694    4.5964 C.3     1  UNL1        0.4186
     24 F          59.8925   90.5583    5.7954 F       1  UNL1       -0.1659
     25 F          58.8614   91.8082    4.4262 F       1  UNL1       -0.1659
     26 F          61.7099   90.9306    4.7667 F       1  UNL1       -0.1659
     27 C          63.1972   95.2892   -0.2418 C.ar    1  UNL1        0.0710
     28 C          63.6258   96.1763    0.8893 C.ar    1  UNL1        0.0180
     29 C          64.9645   96.8517    0.8469 C.ar    1  UNL1        0.0220
     30 C          65.8745   96.6399   -0.3265 C.ar    1  UNL1        0.0990
     31 N          65.4459   95.7528   -1.4576 N.ar    1  UNL1       -0.2410
     32 C          64.1073   95.0775   -1.4152 C.ar    1  UNL1        0.1136
@<TRIPOS>BOND
     1     2     3    2
     2     3    10    1
     3    10    11   ar
     4    11    12   ar
     5    12    13   ar
     6    13    14    1
     7    13    15   ar
     8    15    16   ar
     9     3     4   am
    10     4     5    1
    11     5     6    1
    12     6     7    1
    13     7     1    1
    14     1    17    1
    15    17    18   ar
    16    18    19   ar
    17    19    20   ar
    18    20    23    1
    19    23    24    1
    20    23    25    1
    21    23    26    1
    22    20    21   ar
    23    21    22   ar
    24     1    27    1
    25    27    28   ar
    26    28    29   ar
    27    29    30   ar
    28    30    31   ar
    29    31    32   ar
    30     7     8    1
    31     8     9    1
    32    16    10   ar
    33     9     4    1
    34    22    17   ar
    35    32    27   ar
@<TRIPOS>MOLECULE
*****
 32 35 0 0 0
SMALL
GASTEIGER

@<TRIPOS>ATOM
      1 N          56.7773   94.8093   -3.4916 N.pl3   1  UNL1       -0.2872
      2 O          60.4694   96.7719    1.9642 O.2     1  UNL1       -0.2699
      3 C          60.3819   95.4493    1.2620 C.2     1  UNL1        0.2490
      4 N          59.4808   95.2893    0.0737 N.am    1  UNL1       -0.2760
      5 C          59.3932   93.9667   -0.6285 C.3     1  UNL1        0.0954
      6 C          58.4920   93.8067   -1.8170 C.3     1  UNL1        0.0416
      7 C          57.6784   94.9693   -2.3032 C.3     1  UNL1        0.0807
      8 C          57.7660   96.2919   -1.6010 C.3     1  UNL1        0.0416
      9 C          58.6671   96.4519   -0.4126 C.3     1  UNL1        0.0954
     10 C          61.1955   94.2867    1.7483 C.ar    1  UNL1        0.0537
     11 C          60.5823   93.2760    2.6715 C.ar    1  UNL1        0.0068
     12 C          61.3960   92.1134    3.1577 C.ar    1  UNL1        0.0298
     13 C          62.8228   91.9616    2.7207 C.ar    1  UNL1        0.1401
     14 F          63.6365   90.7990    3.2069 F       1  UNL1       -0.2042
     15 C          63.4361   92.9723    1.7974 C.ar    1  UNL1        0.0298
     16 C          62.6224   94.1348    1.3112 C.ar    1  UNL1        0.0068
     17 C          55.3371   95.2186   -3.4012 C.ar    1  UNL1        0.0515
     18 C          54.6452   95.7971   -4.5998 C.ar    1  UNL1        0.0148
     19 C          53.2050   96.2064   -4.5095 C.ar    1  UNL1        0.0051
     20 C          52.4566   96.0372   -3.2206 C.ar    1  UNL1        0.0715
     21 C          53.1484   95.4586   -2.0220 C.ar    1  UNL1        0.0051
     22 C          54.5887   95.0493   -2.1123 C.ar    1  UNL1        0.0148
     23 C          51.0163   96.4465   -3.1303 C.3     1  UNL1        0.4186
     24 F          49.5761   96.8558   -3.0399 F       1  UNL1       -0.1659
     25 F          50.8108   96.0386   -4.5590 F       1  UNL1       -0.1659
     26 F          51.2219   96.8544   -1.7015 F       1  UNL1       -0.1659
     27 C          57.3164   94.2399   -4.7704 C.ar    1  UNL1        0.0710
     28 C          56.7494   92.9654   -5.3217 C.ar    1  UNL1        0.0180
     29 C          57.2885   92.3961   -6.6005 C.ar    1  UNL1        0.0220
     30 C          58.3946   93.1013   -7.3279 C.ar    1  UNL1        0.0990
     31 N          58.9616   94.3759   -6.7765 N.ar    1  UNL1       -0.2410
     32 C          58.4225   94.9451   -5.4978 C.ar    1  UNL1        0.1136
@<TRIPOS>BOND
     1     2     3    2
     2     3    10    1
     3    10    11   ar
     4    11    12   ar
     5    12    13   ar
     6    13    14    1
     7    13    15   ar
     8    15    16   ar
     9     3     4   am
    10     4     5    1
    11     5     6    1
    12     6     7    1
    13     7     1    1
    14     1    17    1
    15    17    18   ar
    16    18    19   ar
    17    19    20   ar
    18    20    23    1
    19    23    24    1
    20    23    25    1
    21    23    26    1
    22    20    21   ar
    23    21    22   ar
    24     1    27    1
    25    27    28   ar
    26    28    29   ar
    27    29    30   ar
    28    30    31   ar
    29    31    32   ar
    30     7     8    1
    31     8     9    1
    32    16    10   ar
    33     9     4    1
    34    22    17   ar
    35    32    27   ar
