@<TRIPOS>MOLECULE
*****
 28 31 0 0 0
SMALL
GASTEIGER

@<TRIPOS>ATOM
      1 C          64.8040   90.4017   14.3969 C.ar    1  UNL1        0.0516
      2 C          64.0023   90.7463   13.1767 C.ar    1  UNL1        0.0147
      3 C          64.4769   91.8233   12.2470 C.ar    1  UNL1        0.0010
      4 C          65.7533   92.5560   12.5373 C.ar    1  UNL1       -0.0014
      5 C          66.5550   92.2115   13.7574 C.ar    1  UNL1        0.0010
      6 C          66.0803   91.1343   14.6872 C.ar    1  UNL1        0.0147
      7 C          66.2279   93.6332   11.6075 C.2     1  UNL1        0.0158
      8 C          65.8037   95.0549   11.8281 C.2     1  UNL1        0.0487
      9 C          66.2783   96.1320   10.8983 C.2     1  UNL1        0.2355
     10 N          67.1772   95.7874    9.7479 N.2     1  UNL1       -0.0325
     11 C          67.6014   94.3657    9.5274 C.2     1  UNL1        0.3799
     12 N          68.4746   93.7287    8.4873 N.2     1  UNL1       -0.0106
     13 C          68.5396   92.2579    8.7743 C.2     1  UNL1        0.3351
     14 N          67.7066   91.9858    9.9917 N.2     1  UNL1       -0.2103
     15 C          67.1268   93.2886   10.4572 C.3     1  UNL1        0.2404
     16 O          64.4413   87.6004   13.3864 O.2     1  UNL1       -0.2522
     17 C          64.1480   87.9239   14.8214 C.2     1  UNL1        0.3082
     18 N          63.6734   86.8468   15.7511 N.am    1  UNL1       -0.2681
     19 N          64.3294   89.3246   15.3266 N.am    1  UNL1       -0.2681
     20 H          63.4809   87.0592   16.6930 H       1  UNL1        0.1564
     21 H          64.1369   89.5370   16.2685 H       1  UNL1        0.1564
     22 C          63.4920   85.4461   15.2459 C.ar    1  UNL1        0.0516
     23 C          64.5677   84.8002   14.4239 C.ar    1  UNL1        0.0152
     24 C          64.3864   83.3995   13.9187 C.ar    1  UNL1        0.0080
     25 C          63.1293   82.6448   14.2354 C.ar    1  UNL1        0.0346
     26 BR         62.9479   81.2442   13.7302 Br      1  UNL1       -0.0490
     27 C          62.0536   83.2908   15.0574 C.ar    1  UNL1        0.0080
     28 C          62.2350   84.6915   15.5626 C.ar    1  UNL1        0.0152
@<TRIPOS>BOND
     1    16    17    2
     2    17    18   am
     3    18    22    1
     4    22    23   ar
     5    23    24   ar
     6    24    25   ar
     7    25    26    1
     8    25    27   ar
     9    27    28   ar
    10    17    19   am
    11    19     1    1
    12     1     2   ar
    13     2     3   ar
    14     3     4   ar
    15     4     7    1
    16     7     8    2
    17     8     9    1
    18     9    10    2
    19    10    11    1
    20    11    12    2
    21    12    13    1
    22    13    14    2
    23    14    15    1
    24     4     5   ar
    25     5     6   ar
    26    28    22   ar
    27     6     1   ar
    28    15     7    1
    29    15    11    1
    30    18    20    1
    31    19    21    1
@<TRIPOS>MOLECULE
*****
 28 31 0 0 0
SMALL
GASTEIGER

@<TRIPOS>ATOM
      1 C          64.2424   90.0764   13.3779 C.ar    1  UNL1        0.0516
      2 C          63.4347   89.6447   12.1899 C.ar    1  UNL1        0.0147
      3 C          63.0599   88.2021   12.0220 C.ar    1  UNL1        0.0010
      4 C          63.4928   87.1910   13.0420 C.ar    1  UNL1       -0.0014
      5 C          64.3005   87.6227   14.2300 C.ar    1  UNL1        0.0010
      6 C          64.6753   89.0654   14.3979 C.ar    1  UNL1        0.0147
      7 C          63.1179   85.7483   12.8741 C.2     1  UNL1        0.0158
      8 C          62.8655   85.1937   11.5034 C.2     1  UNL1        0.0487
      9 C          62.4906   83.7511   11.3355 C.2     1  UNL1        0.2355
     10 N          62.3682   82.8630   12.5381 N.2     1  UNL1       -0.0325
     11 C          62.6207   83.4176   13.9088 C.2     1  UNL1        0.3799
     12 N          62.5763   82.7887   15.2698 N.2     1  UNL1       -0.0106
     13 C          62.9237   83.8427   16.2790 C.2     1  UNL1        0.3351
     14 N          63.1828   85.1230   15.5416 N.2     1  UNL1       -0.2103
     15 C          62.9956   84.8603   14.0767 C.3     1  UNL1        0.2404
     16 O          65.3002   91.6331   11.0417 O.2     1  UNL1       -0.2522
     17 C          65.1462   92.2974   12.3777 C.2     1  UNL1        0.3082
     18 N          65.5210   93.7400   12.5457 N.am    1  UNL1       -0.2681
     19 N          64.6172   91.5190   13.5458 N.am    1  UNL1       -0.2681
     20 H          65.4198   94.1760   13.4225 H       1  UNL1        0.1564
     21 H          64.5161   91.9550   14.4227 H       1  UNL1        0.1564
     22 C          66.0499   94.5185   11.3776 C.ar    1  UNL1        0.0516
     23 C          65.7678   95.9874   11.2657 C.ar    1  UNL1        0.0152
     24 C          66.2967   96.7659   10.0977 C.ar    1  UNL1        0.0080
     25 C          67.1077   96.0754    9.0415 C.ar    1  UNL1        0.0346
     26 BR         67.6366   96.8537    7.8735 Br      1  UNL1       -0.0490
     27 C          67.3898   94.6063    9.1534 C.ar    1  UNL1        0.0080
     28 C          66.8608   93.8279   10.3215 C.ar    1  UNL1        0.0152
@<TRIPOS>BOND
     1    16    17    2
     2    17    18   am
     3    18    22    1
     4    22    23   ar
     5    23    24   ar
     6    24    25   ar
     7    25    26    1
     8    25    27   ar
     9    27    28   ar
    10    17    19   am
    11    19     1    1
    12     1     2   ar
    13     2     3   ar
    14     3     4   ar
    15     4     7    1
    16     7     8    2
    17     8     9    1
    18     9    10    2
    19    10    11    1
    20    11    12    2
    21    12    13    1
    22    13    14    2
    23    14    15    1
    24     4     5   ar
    25     5     6   ar
    26    28    22   ar
    27     6     1   ar
    28    15     7    1
    29    15    11    1
    30    18    20    1
    31    19    21    1
@<TRIPOS>MOLECULE
*****
 28 31 0 0 0
SMALL
GASTEIGER

@<TRIPOS>ATOM
      1 C          64.9677   90.4216   14.0574 C.ar    1  UNL1        0.0516
      2 C          66.4055   90.8323   14.1762 C.ar    1  UNL1        0.0147
      3 C          67.0182   91.7265   13.1395 C.ar    1  UNL1        0.0010
      4 C          66.1932   92.2101   11.9838 C.ar    1  UNL1       -0.0014
      5 C          64.7554   91.7995   11.8650 C.ar    1  UNL1        0.0010
      6 C          64.1427   90.9053   12.9018 C.ar    1  UNL1        0.0147
      7 C          66.8060   93.1044   10.9471 C.2     1  UNL1        0.0158
      8 C          67.7453   92.5347    9.9258 C.2     1  UNL1        0.0487
      9 C          68.3581   93.4289    8.8891 C.2     1  UNL1        0.2355
     10 N          68.0315   94.8929    8.8736 N.2     1  UNL1       -0.0325
     11 C          67.0922   95.4625    9.8949 C.2     1  UNL1        0.3799
     12 N          66.5864   96.8555   10.1267 N.2     1  UNL1       -0.0106
     13 C          65.6611   96.8222   11.3068 C.2     1  UNL1        0.3351
     14 N          65.5949   95.4086   11.8043 N.2     1  UNL1       -0.2103
     15 C          66.4794   94.5683   10.9316 C.3     1  UNL1        0.2404
     16 O          64.4570   87.5320   13.4334 O.2     1  UNL1       -0.2522
     17 C          64.0996   88.0826   14.7821 C.2     1  UNL1        0.3082
     18 N          63.4869   87.1884   15.8188 N.am    1  UNL1       -0.2681
     19 N          64.3549   89.5274   15.0941 N.am    1  UNL1       -0.2681
     20 H          63.2523   87.5498   16.7040 H       1  UNL1        0.1564
     21 H          64.1204   89.8888   15.9793 H       1  UNL1        0.1564
     22 C          63.2315   85.7435   15.5068 C.ar    1  UNL1        0.0516
     23 C          64.3526   84.8706   15.0259 C.ar    1  UNL1        0.0152
     24 C          64.0973   83.4258   14.7140 C.ar    1  UNL1        0.0080
     25 C          62.7209   82.8539   14.8829 C.ar    1  UNL1        0.0346
     26 BR         62.4655   81.4092   14.5710 Br      1  UNL1       -0.0490
     27 C          61.5998   83.7268   15.3638 C.ar    1  UNL1        0.0080
     28 C          61.8551   85.1717   15.6758 C.ar    1  UNL1        0.0152
@<TRIPOS>BOND
     1    16    17    2
     2    17    18   am
     3    18    22    1
     4    22    23   ar
     5    23    24   ar
     6    24    25   ar
     7    25    26    1
     8    25    27   ar
     9    27    28   ar
    10    17    19   am
    11    19     1    1
    12     1     2   ar
    13     2     3   ar
    14     3     4   ar
    15     4     7    1
    16     7     8    2
    17     8     9    1
    18     9    10    2
    19    10    11    1
    20    11    12    2
    21    12    13    1
    22    13    14    2
    23    14    15    1
    24     4     5   ar
    25     5     6   ar
    26    28    22   ar
    27     6     1   ar
    28    15     7    1
    29    15    11    1
    30    18    20    1
    31    19    21    1
@<TRIPOS>MOLECULE
*****
 28 31 0 0 0
SMALL
GASTEIGER

@<TRIPOS>ATOM
      1 C          64.6935   90.7679   13.7308 C.ar    1  UNL1        0.0516
      2 C          65.2100   89.9213   14.8562 C.ar    1  UNL1        0.0147
      3 C          64.8666   88.4624   14.9159 C.ar    1  UNL1        0.0010
      4 C          64.0068   87.8500   13.8502 C.ar    1  UNL1       -0.0014
      5 C          63.4903   88.6965   12.7248 C.ar    1  UNL1        0.0010
      6 C          63.8337   90.1555   12.6651 C.ar    1  UNL1        0.0147
      7 C          63.6635   86.3910   13.9099 C.2     1  UNL1        0.0158
      8 C          63.8624   85.6253   15.1843 C.2     1  UNL1        0.0487
      9 C          63.5191   84.1664   15.2441 C.2     1  UNL1        0.2355
     10 N          62.9769   83.4730   14.0294 N.2     1  UNL1       -0.0325
     11 C          62.7780   84.2388   12.7550 C.2     1  UNL1        0.3799
     12 N          62.2649   83.8277   11.4068 N.2     1  UNL1       -0.0106
     13 C          62.2911   85.0326   10.5137 C.2     1  UNL1        0.3351
     14 N          62.8204   86.1884   11.3101 N.2     1  UNL1       -0.2103
     15 C          63.1213   85.6977   12.6953 C.3     1  UNL1        0.2404
     16 O          65.4025   92.0358   11.1060 O.2     1  UNL1       -0.2522
     17 C          65.3913   92.8608   12.3586 C.2     1  UNL1        0.3082
     18 N          65.7346   94.3197   12.2989 N.am    1  UNL1       -0.2681
     19 N          65.0368   92.2268   13.6711 N.am    1  UNL1       -0.2681
     20 H          65.7273   94.8611   13.1211 H       1  UNL1        0.1564
     21 H          65.0294   92.7682   14.4933 H       1  UNL1        0.1564
     22 C          66.0891   94.9537   10.9865 C.ar    1  UNL1        0.0516
     23 C          67.1809   94.3677   10.1412 C.ar    1  UNL1        0.0152
     24 C          67.5355   95.0016    8.8288 C.ar    1  UNL1        0.0080
     25 C          66.7983   96.2216    8.3617 C.ar    1  UNL1        0.0346
     26 BR         67.1528   96.8556    7.0494 Br      1  UNL1       -0.0490
     27 C          65.7064   96.8077    9.2071 C.ar    1  UNL1        0.0080
     28 C          65.3519   96.1737   10.5195 C.ar    1  UNL1        0.0152
@<TRIPOS>BOND
     1    16    17    2
     2    17    18   am
     3    18    22    1
     4    22    23   ar
     5    23    24   ar
     6    24    25   ar
     7    25    26    1
     8    25    27   ar
     9    27    28   ar
    10    17    19   am
    11    19     1    1
    12     1     2   ar
    13     2     3   ar
    14     3     4   ar
    15     4     7    1
    16     7     8    2
    17     8     9    1
    18     9    10    2
    19    10    11    1
    20    11    12    2
    21    12    13    1
    22    13    14    2
    23    14    15    1
    24     4     5   ar
    25     5     6   ar
    26    28    22   ar
    27     6     1   ar
    28    15     7    1
    29    15    11    1
    30    18    20    1
    31    19    21    1
@<TRIPOS>MOLECULE
*****
 28 31 0 0 0
SMALL
GASTEIGER

@<TRIPOS>ATOM
      1 C          72.4842   77.1720   14.1589 C.ar    1  UNL1        0.0516
      2 C          73.6002   76.1770   14.2792 C.ar    1  UNL1        0.0147
      3 C          73.3221   74.7969   14.7966 C.ar    1  UNL1        0.0010
      4 C          71.9277   74.4116   15.1936 C.ar    1  UNL1       -0.0014
      5 C          70.8117   75.4066   15.0733 C.ar    1  UNL1        0.0010
      6 C          71.0899   76.7868   14.5559 C.ar    1  UNL1        0.0147
      7 C          71.6495   73.0314   15.7110 C.2     1  UNL1        0.0158
      8 C          71.6829   71.8591   14.7759 C.2     1  UNL1        0.0487
      9 C          71.4048   70.4790   15.2932 C.2     1  UNL1        0.2355
     10 N          71.0932   70.2710   16.7458 N.2     1  UNL1       -0.0325
     11 C          71.0598   71.4434   17.6809 C.2     1  UNL1        0.3799
     12 N          70.7844   71.5465   19.1518 N.2     1  UNL1       -0.0106
     13 C          70.8924   72.9904   19.5435 C.2     1  UNL1        0.3351
     14 N          71.2345   73.7797   18.3147 N.2     1  UNL1       -0.2103
     15 C          71.3380   72.8236   17.1635 C.3     1  UNL1        0.2404
     16 O          71.9695   77.8255   11.2765 O.2     1  UNL1       -0.2522
     17 C          72.5050   78.8789   12.2003 C.2     1  UNL1        0.3082
     18 N          72.7832   80.2590   11.6829 N.am    1  UNL1       -0.2681
     19 N          72.7624   78.5522   13.6415 N.am    1  UNL1       -0.2681
     20 H          73.1347   80.9505   12.2892 H       1  UNL1        0.1564
     21 H          73.1139   79.2436   14.2478 H       1  UNL1        0.1564
     22 C          72.5259   80.5858   10.2417 C.ar    1  UNL1        0.0516
     23 C          72.6923   79.5278    9.1915 C.ar    1  UNL1        0.0152
     24 C          72.4350   79.8545    7.7503 C.ar    1  UNL1        0.0080
     25 C          72.0113   81.2393    7.3593 C.ar    1  UNL1        0.0346
     26 BR         71.7540   81.5660    5.9182 Br      1  UNL1       -0.0490
     27 C          71.8449   82.2974    8.4095 C.ar    1  UNL1        0.0080
     28 C          72.1023   81.9706    9.8507 C.ar    1  UNL1        0.0152
@<TRIPOS>BOND
     1    16    17    2
     2    17    18   am
     3    18    22    1
     4    22    23   ar
     5    23    24   ar
     6    24    25   ar
     7    25    26    1
     8    25    27   ar
     9    27    28   ar
    10    17    19   am
    11    19     1    1
    12     1     2   ar
    13     2     3   ar
    14     3     4   ar
    15     4     7    1
    16     7     8    2
    17     8     9    1
    18     9    10    2
    19    10    11    1
    20    11    12    2
    21    12    13    1
    22    13    14    2
    23    14    15    1
    24     4     5   ar
    25     5     6   ar
    26    28    22   ar
    27     6     1   ar
    28    15     7    1
    29    15    11    1
    30    18    20    1
    31    19    21    1
@<TRIPOS>MOLECULE
*****
 28 31 0 0 0
SMALL
GASTEIGER

@<TRIPOS>ATOM
      1 C          63.8757   87.2391   15.1022 C.ar    1  UNL1        0.0516
      2 C          63.5381   86.1911   16.1210 C.ar    1  UNL1        0.0147
      3 C          63.1641   84.8077   15.6782 C.ar    1  UNL1        0.0010
      4 C          63.1277   84.4721   14.2166 C.ar    1  UNL1       -0.0014
      5 C          63.4653   85.5200   13.1979 C.ar    1  UNL1        0.0010
      6 C          63.8393   86.9035   13.6407 C.ar    1  UNL1        0.0147
      7 C          62.7537   83.0886   13.7739 C.2     1  UNL1        0.0158
      8 C          61.9603   82.1986   14.6841 C.2     1  UNL1        0.0487
      9 C          61.5863   80.8152   14.2415 C.2     1  UNL1        0.2355
     10 N          62.0056   80.3215   12.8884 N.2     1  UNL1       -0.0325
     11 C          62.7989   81.2115   11.9782 C.2     1  UNL1        0.3799
     12 N          63.3492   81.0016   10.5986 N.2     1  UNL1       -0.0106
     13 C          64.0633   82.2554   10.1887 C.2     1  UNL1        0.3351
     14 N          63.9544   83.2402   11.3150 N.2     1  UNL1       -0.2103
     15 C          63.1730   82.5950   12.4209 C.3     1  UNL1        0.2404
     16 O          64.6089   89.3183   13.0677 O.2     1  UNL1       -0.2522
     17 C          64.6163   89.6622   14.5277 C.2     1  UNL1        0.3082
     18 N          64.9903   91.0456   14.9704 N.am    1  UNL1       -0.2681
     19 N          64.2497   88.6225   15.5450 N.am    1  UNL1       -0.2681
     20 H          64.9952   91.2713   15.9287 H       1  UNL1        0.1564
     21 H          64.2546   88.8482   16.5032 H       1  UNL1        0.1564
     22 C          65.3570   92.0853   13.9532 C.ar    1  UNL1        0.0516
     23 C          66.2354   93.2375   14.3415 C.ar    1  UNL1        0.0152
     24 C          66.6021   94.2771   13.3243 C.ar    1  UNL1        0.0080
     25 C          66.0903   94.1646   11.9188 C.ar    1  UNL1        0.0346
     26 BR         66.4569   95.2042   10.9016 Br      1  UNL1       -0.0490
     27 C          65.2118   93.0124   11.5305 C.ar    1  UNL1        0.0080
     28 C          64.8452   91.9727   12.5477 C.ar    1  UNL1        0.0152
@<TRIPOS>BOND
     1    16    17    2
     2    17    18   am
     3    18    22    1
     4    22    23   ar
     5    23    24   ar
     6    24    25   ar
     7    25    26    1
     8    25    27   ar
     9    27    28   ar
    10    17    19   am
    11    19     1    1
    12     1     2   ar
    13     2     3   ar
    14     3     4   ar
    15     4     7    1
    16     7     8    2
    17     8     9    1
    18     9    10    2
    19    10    11    1
    20    11    12    2
    21    12    13    1
    22    13    14    2
    23    14    15    1
    24     4     5   ar
    25     5     6   ar
    26    28    22   ar
    27     6     1   ar
    28    15     7    1
    29    15    11    1
    30    18    20    1
    31    19    21    1
@<TRIPOS>MOLECULE
*****
 28 31 0 0 0
SMALL
GASTEIGER

@<TRIPOS>ATOM
      1 C          62.7769   87.5018   12.3831 C.ar    1  UNL1        0.0516
      2 C          63.4964   86.6027   13.3444 C.ar    1  UNL1        0.0147
      3 C          63.5603   85.1266   13.0864 C.ar    1  UNL1        0.0010
      4 C          62.9046   84.5492   11.8669 C.ar    1  UNL1       -0.0014
      5 C          62.1851   85.4482   10.9056 C.ar    1  UNL1        0.0010
      6 C          62.1212   86.9245   11.1638 C.ar    1  UNL1        0.0147
      7 C          62.9685   83.0730   11.6089 C.2     1  UNL1        0.0158
      8 C          63.5799   82.5593   10.3391 C.2     1  UNL1        0.0487
      9 C          63.6438   81.0832   10.0811 C.2     1  UNL1        0.2355
     10 N          63.0963   80.1205   11.0928 N.2     1  UNL1       -0.0325
     11 C          62.4850   80.6341   12.3626 C.2     1  UNL1        0.3799
     12 N          61.8684   79.9313   13.5356 N.2     1  UNL1       -0.0106
     13 C          61.4235   80.9733   14.5187 C.2     1  UNL1        0.3351
     14 N          61.7650   82.3200   13.9532 N.2     1  UNL1       -0.2103
     15 C          62.4211   82.1104   12.6207 C.3     1  UNL1        0.2404
     16 O          65.1050   88.9047   13.6526 O.2     1  UNL1       -0.2522
     17 C          63.8771   89.6795   13.2759 C.2     1  UNL1        0.3082
     18 N          63.8132   91.1557   13.5340 N.am    1  UNL1       -0.2681
     19 N          62.7130   88.9780   12.6412 N.am    1  UNL1       -0.2681
     20 H          63.0072   91.6642   13.2868 H       1  UNL1        0.1564
     21 H          61.9070   89.4864   12.3939 H       1  UNL1        0.1564
     22 C          64.9773   91.8572   14.1687 C.ar    1  UNL1        0.0516
     23 C          66.0006   92.5395   13.3101 C.ar    1  UNL1        0.0152
     24 C          67.1647   93.2411   13.9448 C.ar    1  UNL1        0.0080
     25 C          67.3054   93.2603   15.4381 C.ar    1  UNL1        0.0346
     26 BR         68.4693   93.9618   16.0728 Br      1  UNL1       -0.0490
     27 C          66.2819   92.5780   16.2967 C.ar    1  UNL1        0.0080
     28 C          65.1179   91.8764   15.6620 C.ar    1  UNL1        0.0152
@<TRIPOS>BOND
     1    16    17    2
     2    17    18   am
     3    18    22    1
     4    22    23   ar
     5    23    24   ar
     6    24    25   ar
     7    25    26    1
     8    25    27   ar
     9    27    28   ar
    10    17    19   am
    11    19     1    1
    12     1     2   ar
    13     2     3   ar
    14     3     4   ar
    15     4     7    1
    16     7     8    2
    17     8     9    1
    18     9    10    2
    19    10    11    1
    20    11    12    2
    21    12    13    1
    22    13    14    2
    23    14    15    1
    24     4     5   ar
    25     5     6   ar
    26    28    22   ar
    27     6     1   ar
    28    15     7    1
    29    15    11    1
    30    18    20    1
    31    19    21    1
@<TRIPOS>MOLECULE
*****
 28 31 0 0 0
SMALL
GASTEIGER

@<TRIPOS>ATOM
      1 C          63.5864   87.3405   14.0882 C.ar    1  UNL1        0.0516
      2 C          63.1463   87.9112   12.7726 C.ar    1  UNL1        0.0147
      3 C          63.6260   89.2665   12.3449 C.ar    1  UNL1        0.0010
      4 C          64.5459   90.0512   13.2327 C.ar    1  UNL1       -0.0014
      5 C          64.9861   89.4805   14.5482 C.ar    1  UNL1        0.0010
      6 C          64.5062   88.1252   14.9759 C.ar    1  UNL1        0.0147
      7 C          65.0257   91.4065   12.8049 C.2     1  UNL1        0.0158
      8 C          64.6625   91.9374   11.4498 C.2     1  UNL1        0.0487
      9 C          65.1422   93.2926   11.0220 C.2     1  UNL1        0.2355
     10 N          65.9852   94.1171   11.9493 N.2     1  UNL1       -0.0325
     11 C          66.3484   93.5862   13.3043 C.2     1  UNL1        0.3799
     12 N          67.1589   94.1662   14.4253 N.2     1  UNL1       -0.0106
     13 C          67.1801   93.1693   15.5460 C.2     1  UNL1        0.3351
     14 N          66.3826   91.9732   15.1176 N.2     1  UNL1       -0.2103
     15 C          65.8686   92.2309   13.7321 C.3     1  UNL1        0.2404
     16 O          63.6981   85.0358   12.1711 O.2     1  UNL1       -0.2522
     17 C          63.1625   84.8328   13.5574 C.2     1  UNL1        0.3082
     18 N          62.6827   83.4776   13.9851 N.am    1  UNL1       -0.2681
     19 N          63.1066   85.9853   14.5160 N.am    1  UNL1       -0.2681
     20 H          62.3312   83.3445   14.8950 H       1  UNL1        0.1564
     21 H          62.7551   85.8522   15.4259 H       1  UNL1        0.1564
     22 C          62.7386   82.3251   13.0265 C.ar    1  UNL1        0.0516
     23 C          62.4072   80.9404   13.4985 C.ar    1  UNL1        0.0152
     24 C          62.4630   79.7880   12.5400 C.ar    1  UNL1        0.0080
     25 C          62.8502   80.0202   11.1096 C.ar    1  UNL1        0.0346
     26 BR         62.9060   78.8678   10.1511 Br      1  UNL1       -0.0490
     27 C          63.1816   81.4050   10.6376 C.ar    1  UNL1        0.0080
     28 C          63.1258   82.5575   11.5962 C.ar    1  UNL1        0.0152
@<TRIPOS>BOND
     1    16    17    2
     2    17    18   am
     3    18    22    1
     4    22    23   ar
     5    23    24   ar
     6    24    25   ar
     7    25    26    1
     8    25    27   ar
     9    27    28   ar
    10    17    19   am
    11    19     1    1
    12     1     2   ar
    13     2     3   ar
    14     3     4   ar
    15     4     7    1
    16     7     8    2
    17     8     9    1
    18     9    10    2
    19    10    11    1
    20    11    12    2
    21    12    13    1
    22    13    14    2
    23    14    15    1
    24     4     5   ar
    25     5     6   ar
    26    28    22   ar
    27     6     1   ar
    28    15     7    1
    29    15    11    1
    30    18    20    1
    31    19    21    1
@<TRIPOS>MOLECULE
*****
 28 31 0 0 0
SMALL
GASTEIGER

@<TRIPOS>ATOM
      1 C          62.8755   88.9588   11.5652 C.ar    1  UNL1        0.0516
      2 C          63.0706   89.9942   10.4974 C.ar    1  UNL1        0.0147
      3 C          63.8613   91.2345   10.7910 C.ar    1  UNL1        0.0010
      4 C          64.4570   91.4395   12.1524 C.ar    1  UNL1       -0.0014
      5 C          64.2619   90.4042   13.2201 C.ar    1  UNL1        0.0010
      6 C          63.4711   89.1638   12.9264 C.ar    1  UNL1        0.0147
      7 C          65.2477   92.6799   12.4460 C.2     1  UNL1        0.0158
      8 C          65.3151   93.7838   11.4327 C.2     1  UNL1        0.0487
      9 C          66.1057   95.0241   11.7262 C.2     1  UNL1        0.2355
     10 N          66.8292   95.1607   13.0332 N.2     1  UNL1       -0.0325
     11 C          66.7619   94.0568   14.0465 C.2     1  UNL1        0.3799
     12 N          67.3665   93.9089   15.4113 N.2     1  UNL1       -0.0106
     13 C          66.9494   92.5771   15.9611 C.2     1  UNL1        0.3351
     14 N          66.0871   91.9019   14.9363 N.2     1  UNL1       -0.2103
     15 C          65.9711   92.8164   13.7529 C.3     1  UNL1        0.2404
     16 O          63.7191   86.3295   12.7377 O.2     1  UNL1       -0.2522
     17 C          62.5065   86.4037   11.8578 C.2     1  UNL1        0.3082
     18 N          61.7158   85.1635   11.5642 N.am    1  UNL1       -0.2681
     19 N          62.0848   87.7185   11.2716 N.am    1  UNL1       -0.2681
     20 H          60.9200   85.2122   10.9867 H       1  UNL1        0.1564
     21 H          61.2889   87.7673   10.6941 H       1  UNL1        0.1564
     22 C          62.1376   83.8487   12.1505 C.ar    1  UNL1        0.0516
     23 C          62.0691   83.6323   13.6332 C.ar    1  UNL1        0.0152
     24 C          62.4909   82.3176   14.2195 C.ar    1  UNL1        0.0080
     25 C          62.9811   81.2194   13.3231 C.ar    1  UNL1        0.0346
     26 BR         63.4028   79.9047   13.9093 Br      1  UNL1       -0.0490
     27 C          63.0496   81.4358   11.8403 C.ar    1  UNL1        0.0080
     28 C          62.6278   82.7506   11.2540 C.ar    1  UNL1        0.0152
@<TRIPOS>BOND
     1    16    17    2
     2    17    18   am
     3    18    22    1
     4    22    23   ar
     5    23    24   ar
     6    24    25   ar
     7    25    26    1
     8    25    27   ar
     9    27    28   ar
    10    17    19   am
    11    19     1    1
    12     1     2   ar
    13     2     3   ar
    14     3     4   ar
    15     4     7    1
    16     7     8    2
    17     8     9    1
    18     9    10    2
    19    10    11    1
    20    11    12    2
    21    12    13    1
    22    13    14    2
    23    14    15    1
    24     4     5   ar
    25     5     6   ar
    26    28    22   ar
    27     6     1   ar
    28    15     7    1
    29    15    11    1
    30    18    20    1
    31    19    21    1
