@<TRIPOS>MOLECULE
*****
 33 35 0 0 0
SMALL
GASTEIGER

@<TRIPOS>ATOM
      1 C          66.8964   93.4828   13.0599 C.3     1  UNL1        0.2160
      2 N          65.7603   92.6320   12.5750 N.am    1  UNL1       -0.1416
      3 C          65.1347   91.4893   13.3185 C.2     1  UNL1        0.3314
      4 O          65.5355   90.9967   14.6775 O.2     1  UNL1       -0.2520
      5 C          64.0380   90.9256   12.4645 C.3     1  UNL1        0.2669
      6 N          63.9857   91.7199   11.1932 N.2     1  UNL1       -0.0890
      7 C          65.0502   92.7746   11.2615 C.2     1  UNL1        0.3741
      8 N          65.3516   93.7930   10.2023 N.pl3   1  UNL1       -0.2512
      9 H          64.8271   93.8068    9.3692 H       1  UNL1        0.2412
     10 H          66.0739   94.4476   10.3401 H       1  UNL1        0.2412
     11 C          63.8528   89.9717   13.6072 C.ar    1  UNL1        0.0281
     12 C          63.4298   90.4850   14.9516 C.ar    1  UNL1        0.0021
     13 C          63.2446   89.5311   16.0944 C.ar    1  UNL1        0.0301
     14 C          63.4826   88.0638   15.8927 C.ar    1  UNL1        0.1477
     15 F          63.2974   87.1100   17.0354 F       1  UNL1       -0.2035
     16 C          63.9056   87.5505   14.5483 C.ar    1  UNL1        0.0689
     17 C          64.0908   88.5044   13.4055 C.ar    1  UNL1        0.0103
     18 C          64.1435   86.0834   14.3466 C.1     1  UNL1       -0.0621
     19 C          64.3814   84.6162   14.1449 C.1     1  UNL1       -0.0863
     20 C          64.6194   83.1489   13.9431 C.3     1  UNL1        0.0793
     21 C          64.3368   82.5195   12.6113 C.3     1  UNL1        0.0521
     22 C          64.3309   83.3614   11.3699 C.3     1  UNL1        0.1943
     23 F          64.4676   82.7139   10.0238 F       1  UNL1       -0.2343
     24 C          62.9025   90.1624   11.8494 C.ar    1  UNL1        0.0275
     25 C          63.1129   89.4048   10.5720 C.ar    1  UNL1        0.0029
     26 C          61.9774   88.6416    9.9570 C.ar    1  UNL1        0.0369
     27 C          60.6316   88.6362   10.6193 C.ar    1  UNL1        0.1443
     28 C          60.4212   89.3938   11.8966 C.ar    1  UNL1        0.0369
     29 C          61.5566   90.1569   12.5117 C.ar    1  UNL1        0.0029
     30 O          59.4961   87.8730   10.0041 O.3     1  UNL1       -0.4236
     31 C          59.5993   87.3857    8.5893 C.3     1  UNL1        0.5087
     32 F          59.8221   85.9284    8.3123 F       1  UNL1       -0.1550
     33 F          59.4796   88.3557    7.4513 F       1  UNL1       -0.1550
@<TRIPOS>BOND
     1     1     2    1
     2     2     3   am
     3     3     4    2
     4     3     5    1
     5     5    24    1
     6    24    25   ar
     7    25    26   ar
     8    26    27   ar
     9    27    30    1
    10    30    31    1
    11    31    32    1
    12    31    33    1
    13    27    28   ar
    14    28    29   ar
    15     5    11    1
    16    11    12   ar
    17    12    13   ar
    18    13    14   ar
    19    14    15    1
    20    14    16   ar
    21    16    18    1
    22    18    19    3
    23    19    20    1
    24    20    21    1
    25    21    22    1
    26    22    23    1
    27    16    17   ar
    28     5     6    1
    29     6     7    2
    30     7     8    1
    31     7     2    1
    32    29    24   ar
    33    17    11   ar
    34     8     9    1
    35     8    10    1
@<TRIPOS>MOLECULE
*****
 33 35 0 0 0
SMALL
GASTEIGER

@<TRIPOS>ATOM
      1 C          65.7571   93.6636   10.1531 C.3     1  UNL1        0.2160
      2 N          65.3708   92.7474   11.2761 N.am    1  UNL1       -0.1416
      3 C          64.2422   91.7595   11.2596 C.2     1  UNL1        0.3314
      4 O          63.3017   91.5144   10.1170 O.2     1  UNL1       -0.2520
      5 C          64.2193   91.0598   12.5861 C.3     1  UNL1        0.2669
      6 N          65.3337   91.6152   13.4225 N.2     1  UNL1       -0.0890
      7 C          66.0454   92.6582   12.6129 C.2     1  UNL1        0.3741
      8 N          67.2246   93.4696   13.0613 N.pl3   1  UNL1       -0.2512
      9 H          67.5986   93.3381   13.9625 H       1  UNL1        0.2412
     10 H          67.6247   94.1336   12.4544 H       1  UNL1        0.2412
     11 C          63.0489   90.3259   12.0015 C.ar    1  UNL1        0.0281
     12 C          61.6532   90.8057   12.2693 C.ar    1  UNL1        0.0021
     13 C          60.4827   90.0719   11.6847 C.ar    1  UNL1        0.0301
     14 C          60.7081   88.8583   10.8323 C.ar    1  UNL1        0.1477
     15 F          59.5377   88.1246   10.2478 F       1  UNL1       -0.2035
     16 C          62.1038   88.3786   10.5645 C.ar    1  UNL1        0.0689
     17 C          63.2743   89.1124   11.1491 C.ar    1  UNL1        0.0103
     18 C          62.3292   87.1651    9.7122 C.1     1  UNL1       -0.0621
     19 C          62.5546   85.9516    8.8598 C.1     1  UNL1       -0.0863
     20 C          62.7800   84.7380    8.0075 C.3     1  UNL1        0.0793
     21 C          62.6161   84.8260    6.5190 C.3     1  UNL1        0.0521
     22 C          61.4543   84.1520    5.8512 C.3     1  UNL1        0.1943
     23 F          61.3986   84.0615    4.3551 F       1  UNL1       -0.2343
     24 C          63.9516   90.2065   13.7905 C.ar    1  UNL1        0.0275
     25 C          64.1757   88.7249   13.7248 C.ar    1  UNL1        0.0029
     26 C          63.9080   87.8717   14.9291 C.ar    1  UNL1        0.0369
     27 C          63.4163   88.5003   16.1992 C.ar    1  UNL1        0.1443
     28 C          63.1922   89.9820   16.2649 C.ar    1  UNL1        0.0369
     29 C          63.4599   90.8351   15.0606 C.ar    1  UNL1        0.0029
     30 O          63.1486   87.6471   17.4036 O.3     1  UNL1       -0.4236
     31 C          62.8388   86.1891   17.2359 C.3     1  UNL1        0.5087
     32 F          63.9530   85.1856   17.1931 F       1  UNL1       -0.1550
     33 F          61.4148   85.7344   17.1111 F       1  UNL1       -0.1550
@<TRIPOS>BOND
     1     1     2    1
     2     2     3   am
     3     3     4    2
     4     3     5    1
     5     5    24    1
     6    24    25   ar
     7    25    26   ar
     8    26    27   ar
     9    27    30    1
    10    30    31    1
    11    31    32    1
    12    31    33    1
    13    27    28   ar
    14    28    29   ar
    15     5    11    1
    16    11    12   ar
    17    12    13   ar
    18    13    14   ar
    19    14    15    1
    20    14    16   ar
    21    16    18    1
    22    18    19    3
    23    19    20    1
    24    20    21    1
    25    21    22    1
    26    22    23    1
    27    16    17   ar
    28     5     6    1
    29     6     7    2
    30     7     8    1
    31     7     2    1
    32    29    24   ar
    33    17    11   ar
    34     8     9    1
    35     8    10    1
@<TRIPOS>MOLECULE
*****
 33 35 0 0 0
SMALL
GASTEIGER

@<TRIPOS>ATOM
      1 C          65.7728   93.5799   10.1642 C.3     1  UNL1        0.2160
      2 N          65.3769   92.7093   11.3197 N.am    1  UNL1       -0.1416
      3 C          64.2720   91.6948   11.3212 C.2     1  UNL1        0.3314
      4 O          63.3691   91.3727   10.1675 O.2     1  UNL1       -0.2520
      5 C          64.2286   91.0588   12.6790 C.3     1  UNL1        0.2669
      6 N          65.3066   91.6802   13.5166 N.2     1  UNL1       -0.0890
      7 C          66.0163   92.7003   12.6765 C.2     1  UNL1        0.3741
      8 N          67.1639   93.5604   13.1160 N.pl3   1  UNL1       -0.2512
      9 H          67.5158   93.4812   14.0321 H       1  UNL1        0.2412
     10 H          67.5652   94.2042   12.4885 H       1  UNL1        0.2412
     11 C          63.0918   90.2699   12.0999 C.ar    1  UNL1        0.0281
     12 C          61.7163   90.8656   12.0459 C.ar    1  UNL1        0.0021
     13 C          60.5794   90.0767   11.4669 C.ar    1  UNL1        0.0301
     14 C          60.8182   88.6920   10.9418 C.ar    1  UNL1        0.1477
     15 F          59.6814   87.9032   10.3628 F       1  UNL1       -0.2035
     16 C          62.1937   88.0963   10.9958 C.ar    1  UNL1        0.0689
     17 C          63.3306   88.8852   11.5749 C.ar    1  UNL1        0.0103
     18 C          62.4324   86.7117   10.4708 C.1     1  UNL1       -0.0621
     19 C          62.6712   85.3270    9.9457 C.1     1  UNL1       -0.0863
     20 C          62.9100   83.9423    9.4207 C.3     1  UNL1        0.0793
     21 C          64.0138   83.1032    9.9928 C.3     1  UNL1        0.0521
     22 C          63.8216   82.4054   11.3067 C.3     1  UNL1        0.1943
     23 F          62.4571   81.9327   11.7122 F       1  UNL1       -0.2343
     24 C          63.9475   90.2578   13.9158 C.ar    1  UNL1        0.0275
     25 C          64.1984   88.7790   13.9247 C.ar    1  UNL1        0.0029
     26 C          63.9172   87.9781   15.1614 C.ar    1  UNL1        0.0369
     27 C          63.3853   88.6561   16.3892 C.ar    1  UNL1        0.1443
     28 C          63.1344   90.1349   16.3803 C.ar    1  UNL1        0.0369
     29 C          63.4155   90.9358   15.1435 C.ar    1  UNL1        0.0029
     30 O          63.1042   87.8551   17.6260 O.3     1  UNL1       -0.4236
     31 C          62.6712   86.4237   17.5102 C.3     1  UNL1        0.5087
     32 F          63.6870   85.3234   17.5981 F       1  UNL1       -0.1550
     33 F          61.2225   86.0924   17.3065 F       1  UNL1       -0.1550
@<TRIPOS>BOND
     1     1     2    1
     2     2     3   am
     3     3     4    2
     4     3     5    1
     5     5    24    1
     6    24    25   ar
     7    25    26   ar
     8    26    27   ar
     9    27    30    1
    10    30    31    1
    11    31    32    1
    12    31    33    1
    13    27    28   ar
    14    28    29   ar
    15     5    11    1
    16    11    12   ar
    17    12    13   ar
    18    13    14   ar
    19    14    15    1
    20    14    16   ar
    21    16    18    1
    22    18    19    3
    23    19    20    1
    24    20    21    1
    25    21    22    1
    26    22    23    1
    27    16    17   ar
    28     5     6    1
    29     6     7    2
    30     7     8    1
    31     7     2    1
    32    29    24   ar
    33    17    11   ar
    34     8     9    1
    35     8    10    1
@<TRIPOS>MOLECULE
*****
 33 35 0 0 0
SMALL
GASTEIGER

@<TRIPOS>ATOM
      1 C          63.0359   84.2588    7.5397 C.3     1  UNL1        0.2160
      2 N          63.0793   84.4579    9.0258 N.am    1  UNL1       -0.1416
      3 C          62.6145   85.6769    9.7660 C.2     1  UNL1        0.3314
      4 O          62.0247   86.9109    9.1500 O.2     1  UNL1       -0.2520
      5 C          62.8431   85.4453   11.2302 C.3     1  UNL1        0.2669
      6 N          63.4491   84.0831   11.3950 N.2     1  UNL1       -0.0890
      7 C          63.5951   83.4729   10.0325 C.2     1  UNL1        0.3741
      8 N          64.1581   82.1158    9.7300 N.pl3   1  UNL1       -0.2512
      9 H          64.4728   81.5389   10.4630 H       1  UNL1        0.2412
     10 H          64.2129   81.8022    8.7984 H       1  UNL1        0.2412
     11 C          62.2593   86.8191   11.3781 C.ar    1  UNL1        0.0281
     12 C          60.7712   87.0073   11.3621 C.ar    1  UNL1        0.0021
     13 C          60.1874   88.3812   11.5099 C.ar    1  UNL1        0.0301
     14 C          61.0916   89.5667   11.6737 C.ar    1  UNL1        0.1477
     15 F          60.5078   90.9404   11.8215 F       1  UNL1       -0.2035
     16 C          62.5796   89.3785   11.6897 C.ar    1  UNL1        0.0689
     17 C          63.1635   88.0047   11.5419 C.ar    1  UNL1        0.0103
     18 C          63.4838   90.5640   11.8535 C.1     1  UNL1       -0.0621
     19 C          64.3881   91.7495   12.0174 C.1     1  UNL1       -0.0863
     20 C          65.2923   92.9351   12.1812 C.3     1  UNL1        0.0793
     21 C          66.4394   92.8759   13.1459 C.3     1  UNL1        0.0521
     22 C          66.2461   92.2705   14.5047 C.3     1  UNL1        0.1943
     23 F          66.0845   90.7862   14.6483 F       1  UNL1       -0.2343
     24 C          62.9496   85.5009   12.7255 C.ar    1  UNL1        0.0275
     25 C          63.8852   86.4770   13.3749 C.ar    1  UNL1        0.0029
     26 C          63.9917   86.5326   14.8700 C.ar    1  UNL1        0.0369
     27 C          63.1625   85.6121   15.7158 C.ar    1  UNL1        0.1443
     28 C          62.2269   84.6361   15.0663 C.ar    1  UNL1        0.0369
     29 C          62.1204   84.5805   13.5712 C.ar    1  UNL1        0.0029
     30 O          63.2691   85.6678   17.2110 O.3     1  UNL1       -0.4236
     31 C          62.8664   86.9119   17.9458 C.3     1  UNL1        0.5087
     32 F          62.5998   88.1781   17.1869 F       1  UNL1       -0.1550
     33 F          62.7303   86.8899   19.4394 F       1  UNL1       -0.1550
@<TRIPOS>BOND
     1     1     2    1
     2     2     3   am
     3     3     4    2
     4     3     5    1
     5     5    24    1
     6    24    25   ar
     7    25    26   ar
     8    26    27   ar
     9    27    30    1
    10    30    31    1
    11    31    32    1
    12    31    33    1
    13    27    28   ar
    14    28    29   ar
    15     5    11    1
    16    11    12   ar
    17    12    13   ar
    18    13    14   ar
    19    14    15    1
    20    14    16   ar
    21    16    18    1
    22    18    19    3
    23    19    20    1
    24    20    21    1
    25    21    22    1
    26    22    23    1
    27    16    17   ar
    28     5     6    1
    29     6     7    2
    30     7     8    1
    31     7     2    1
    32    29    24   ar
    33    17    11   ar
    34     8     9    1
    35     8    10    1
@<TRIPOS>MOLECULE
*****
 33 35 0 0 0
SMALL
GASTEIGER

@<TRIPOS>ATOM
      1 C          62.2384   81.1488   14.0924 C.3     1  UNL1        0.2160
      2 N          62.4817   82.6149   13.8893 N.am    1  UNL1       -0.1416
      3 C          62.5831   83.3170   12.5677 C.2     1  UNL1        0.3314
      4 O          62.4590   82.6763   11.2171 O.2     1  UNL1       -0.2520
      5 C          62.8304   84.7724   12.8338 C.3     1  UNL1        0.2669
      6 N          62.8818   84.9697   14.3198 N.2     1  UNL1       -0.0890
      7 C          62.6663   83.6363   14.9722 C.2     1  UNL1        0.3741
      8 N          62.6400   83.3709   16.4483 N.pl3   1  UNL1       -0.2512
      9 H          62.7719   84.1110   17.0840 H       1  UNL1        0.2412
     10 H          62.4908   82.4566   16.7815 H       1  UNL1        0.2412
     11 C          62.8307   84.8842   11.3380 C.ar    1  UNL1        0.0281
     12 C          63.8298   84.1119   10.5284 C.ar    1  UNL1        0.0021
     13 C          63.8302   84.2237    9.0325 C.ar    1  UNL1        0.0301
     14 C          62.8314   85.1078    8.3462 C.ar    1  UNL1        0.1477
     15 F          62.8318   85.2196    6.8505 F       1  UNL1       -0.2035
     16 C          61.8323   85.8800    9.1558 C.ar    1  UNL1        0.0689
     17 C          61.8319   85.7683   10.6517 C.ar    1  UNL1        0.0103
     18 C          60.8336   86.7641    8.4696 C.1     1  UNL1       -0.0621
     19 C          59.8348   87.6481    7.7834 C.1     1  UNL1       -0.0863
     20 C          58.8360   88.5322    7.0972 C.3     1  UNL1        0.0793
     21 C          59.3040   89.7042    6.2864 C.3     1  UNL1        0.0521
     22 C          58.3039   90.6231    5.6497 C.3     1  UNL1        0.1943
     23 F          58.6769   92.0442    5.3480 F       1  UNL1       -0.2343
     24 C          63.0778   86.2511   12.7871 C.ar    1  UNL1        0.0275
     25 C          63.9573   86.8973   13.8161 C.ar    1  UNL1        0.0029
     26 C          64.2046   88.3760   13.7693 C.ar    1  UNL1        0.0369
     27 C          63.5724   89.2085   12.6936 C.ar    1  UNL1        0.1443
     28 C          62.6929   88.5624   11.6646 C.ar    1  UNL1        0.0369
     29 C          62.4456   87.0837   11.7114 C.ar    1  UNL1        0.0029
     30 O          63.8198   90.6873   12.6469 O.3     1  UNL1       -0.4236
     31 C          63.9499   91.3846   11.3253 C.3     1  UNL1        0.5087
     32 F          62.7834   91.4303   10.3833 F       1  UNL1       -0.1550
     33 F          65.2465   92.0362   10.9455 F       1  UNL1       -0.1550
@<TRIPOS>BOND
     1     1     2    1
     2     2     3   am
     3     3     4    2
     4     3     5    1
     5     5    24    1
     6    24    25   ar
     7    25    26   ar
     8    26    27   ar
     9    27    30    1
    10    30    31    1
    11    31    32    1
    12    31    33    1
    13    27    28   ar
    14    28    29   ar
    15     5    11    1
    16    11    12   ar
    17    12    13   ar
    18    13    14   ar
    19    14    15    1
    20    14    16   ar
    21    16    18    1
    22    18    19    3
    23    19    20    1
    24    20    21    1
    25    21    22    1
    26    22    23    1
    27    16    17   ar
    28     5     6    1
    29     6     7    2
    30     7     8    1
    31     7     2    1
    32    29    24   ar
    33    17    11   ar
    34     8     9    1
    35     8    10    1
@<TRIPOS>MOLECULE
*****
 33 35 0 0 0
SMALL
GASTEIGER

@<TRIPOS>ATOM
      1 C          61.6542   90.4341   10.2377 C.3     1  UNL1        0.2160
      2 N          62.7551   90.8126   11.1836 N.am    1  UNL1       -0.1416
      3 C          62.9938   90.2204   12.5409 C.2     1  UNL1        0.3314
      4 O          62.1735   89.1456   13.1905 O.2     1  UNL1       -0.2520
      5 C          64.1968   90.8916   13.1345 C.3     1  UNL1        0.2669
      6 N          64.7015   91.8987   12.1440 N.2     1  UNL1       -0.0890
      7 C          63.8105   91.8499   10.9383 C.2     1  UNL1        0.3741
      8 N          63.9503   92.6907    9.7041 N.pl3   1  UNL1       -0.2512
      9 H          64.6800   93.3482    9.6364 H       1  UNL1        0.2412
     10 H          63.3125   92.5851    8.9616 H       1  UNL1        0.2412
     11 C          63.9319   89.9852   14.2999 C.ar    1  UNL1        0.0281
     12 C          63.4243   90.5536   15.5919 C.ar    1  UNL1        0.0021
     13 C          63.1595   89.6472   16.7574 C.ar    1  UNL1        0.0301
     14 C          63.4023   88.1724   16.6310 C.ar    1  UNL1        0.1477
     15 F          63.1374   87.2661   17.7964 F       1  UNL1       -0.2035
     16 C          63.9099   87.6040   15.3390 C.ar    1  UNL1        0.0689
     17 C          64.1747   88.5104   14.1734 C.ar    1  UNL1        0.0103
     18 C          64.1527   86.1292   15.2125 C.1     1  UNL1       -0.0621
     19 C          64.3955   84.6544   15.0860 C.1     1  UNL1       -0.0863
     20 C          64.6383   83.1796   14.9595 C.3     1  UNL1        0.0793
     21 C          63.6218   82.3073   14.2843 C.3     1  UNL1        0.0521
     22 C          62.1591   82.5320   14.5297 C.3     1  UNL1        0.1943
     23 F          61.1803   81.4192   14.2983 F       1  UNL1       -0.2343
     24 C          65.3444   91.3733   13.9717 C.ar    1  UNL1        0.0275
     25 C          65.0875   91.9736   15.3221 C.ar    1  UNL1        0.0029
     26 C          66.2351   92.4553   16.1593 C.ar    1  UNL1        0.0369
     27 C          67.6396   92.3366   15.6461 C.ar    1  UNL1        0.1443
     28 C          67.8965   91.7363   14.2958 C.ar    1  UNL1        0.0369
     29 C          66.7489   91.2546   13.4586 C.ar    1  UNL1        0.0029
     30 O          68.7872   92.8183   16.4834 O.3     1  UNL1       -0.4236
     31 C          69.5158   94.0740   16.1060 C.3     1  UNL1        0.5087
     32 F          69.0780   95.3934   16.6697 F       1  UNL1       -0.1550
     33 F          70.6821   94.0104   15.1650 F       1  UNL1       -0.1550
@<TRIPOS>BOND
     1     1     2    1
     2     2     3   am
     3     3     4    2
     4     3     5    1
     5     5    24    1
     6    24    25   ar
     7    25    26   ar
     8    26    27   ar
     9    27    30    1
    10    30    31    1
    11    31    32    1
    12    31    33    1
    13    27    28   ar
    14    28    29   ar
    15     5    11    1
    16    11    12   ar
    17    12    13   ar
    18    13    14   ar
    19    14    15    1
    20    14    16   ar
    21    16    18    1
    22    18    19    3
    23    19    20    1
    24    20    21    1
    25    21    22    1
    26    22    23    1
    27    16    17   ar
    28     5     6    1
    29     6     7    2
    30     7     8    1
    31     7     2    1
    32    29    24   ar
    33    17    11   ar
    34     8     9    1
    35     8    10    1
@<TRIPOS>MOLECULE
*****
 33 35 0 0 0
SMALL
GASTEIGER

@<TRIPOS>ATOM
      1 C          59.1024   89.2718    7.1743 C.3     1  UNL1        0.2160
      2 N          59.8688   88.4376    8.1575 N.am    1  UNL1       -0.1416
      3 C          60.6679   88.9534    9.3173 C.2     1  UNL1        0.3314
      4 O          60.8411   90.3940    9.6976 O.2     1  UNL1       -0.2520
      5 C          61.2636   87.7756   10.0301 C.3     1  UNL1        0.2669
      6 N          60.8326   86.5320    9.3108 N.2     1  UNL1       -0.0890
      7 C          59.9705   86.9411    8.1534 C.2     1  UNL1        0.3741
      8 N          59.3237   86.0161    7.1655 N.pl3   1  UNL1       -0.2512
      9 H          59.4501   85.0431    7.2464 H       1  UNL1        0.2412
     10 H          58.7729   86.3820    6.4361 H       1  UNL1        0.2412
     11 C          61.8446   88.8187   10.9381 C.ar    1  UNL1        0.0281
     12 C          61.2996   88.9937   12.3246 C.ar    1  UNL1        0.0021
     13 C          61.8806   90.0368   13.2327 C.ar    1  UNL1        0.0301
     14 C          63.0065   90.9048   12.7543 C.ar    1  UNL1        0.1477
     15 F          63.5874   91.9478   13.6624 F       1  UNL1       -0.2035
     16 C          63.5515   90.7297   11.3678 C.ar    1  UNL1        0.0689
     17 C          62.9705   89.6867   10.4597 C.ar    1  UNL1        0.0103
     18 C          64.6774   91.5976   10.8894 C.1     1  UNL1       -0.0621
     19 C          65.8033   92.4656   10.4110 C.1     1  UNL1       -0.0863
     20 C          66.9293   93.3336    9.9325 C.3     1  UNL1        0.0793
     21 C          66.8718   94.8182   10.1389 C.3     1  UNL1        0.0521
     22 C          66.1302   95.3839   11.3137 C.3     1  UNL1        0.1943
     23 F          66.3318   94.7992   12.6802 F       1  UNL1       -0.2343
     24 C          61.9808   86.8159   10.9328 C.ar    1  UNL1        0.0275
     25 C          62.8799   87.3342   12.0158 C.ar    1  UNL1        0.0029
     26 C          63.5970   86.3745   12.9183 C.ar    1  UNL1        0.0369
     27 C          63.4150   84.8966   12.7379 C.ar    1  UNL1        0.1443
     28 C          62.5159   84.3783   11.6549 C.ar    1  UNL1        0.0369
     29 C          61.7988   85.3380   10.7524 C.ar    1  UNL1        0.0029
     30 O          64.1322   83.9369   13.6406 O.3     1  UNL1       -0.4236
     31 C          63.4857   82.6373   14.0189 C.3     1  UNL1        0.5087
     32 F          64.0753   81.3411   13.5473 F       1  UNL1       -0.1550
     33 F          62.2496   82.6338   14.8687 F       1  UNL1       -0.1550
@<TRIPOS>BOND
     1     1     2    1
     2     2     3   am
     3     3     4    2
     4     3     5    1
     5     5    24    1
     6    24    25   ar
     7    25    26   ar
     8    26    27   ar
     9    27    30    1
    10    30    31    1
    11    31    32    1
    12    31    33    1
    13    27    28   ar
    14    28    29   ar
    15     5    11    1
    16    11    12   ar
    17    12    13   ar
    18    13    14   ar
    19    14    15    1
    20    14    16   ar
    21    16    18    1
    22    18    19    3
    23    19    20    1
    24    20    21    1
    25    21    22    1
    26    22    23    1
    27    16    17   ar
    28     5     6    1
    29     6     7    2
    30     7     8    1
    31     7     2    1
    32    29    24   ar
    33    17    11   ar
    34     8     9    1
    35     8    10    1
@<TRIPOS>MOLECULE
*****
 33 35 0 0 0
SMALL
GASTEIGER

@<TRIPOS>ATOM
      1 C          64.3056   85.1181   15.0488 C.3     1  UNL1        0.2160
      2 N          63.7857   85.1058   13.6419 N.am    1  UNL1       -0.1416
      3 C          63.1146   86.2490   12.9399 C.2     1  UNL1        0.3314
      4 O          62.8457   87.6052   13.5217 O.2     1  UNL1       -0.2520
      5 C          62.7597   85.7979   11.5541 C.3     1  UNL1        0.2669
      6 N          63.2114   84.3759   11.3996 N.2     1  UNL1       -0.0890
      7 C          63.8455   83.9482   12.6900 C.2     1  UNL1        0.3741
      8 N          64.4358   82.5996   12.9778 N.pl3   1  UNL1       -0.2512
      9 H          64.4277   81.9006   12.2845 H       1  UNL1        0.2412
     10 H          64.8312   82.4134   13.8600 H       1  UNL1        0.2412
     11 C          62.2098   87.1862   11.4127 C.ar    1  UNL1        0.0281
     12 C          60.7285   87.4156   11.4698 C.ar    1  UNL1        0.0021
     13 C          60.1785   88.8040   11.3284 C.ar    1  UNL1        0.0301
     14 C          61.1098   89.9630   11.1299 C.ar    1  UNL1        0.1477
     15 F          60.5598   91.3513   10.9885 F       1  UNL1       -0.2035
     16 C          62.5911   89.7337   11.0728 C.ar    1  UNL1        0.0689
     17 C          63.1411   88.3453   11.2142 C.ar    1  UNL1        0.0103
     18 C          63.5223   90.8926   10.8744 C.1     1  UNL1       -0.0621
     19 C          64.4536   92.0516   10.6759 C.1     1  UNL1       -0.0863
     20 C          65.3850   93.2106   10.4774 C.3     1  UNL1        0.0793
     21 C          66.8689   92.9943   10.5093 C.3     1  UNL1        0.0521
     22 C          67.7022   93.3328    9.3087 C.3     1  UNL1        0.1943
     23 F          68.7565   92.3773    8.8341 F       1  UNL1       -0.2343
     24 C          62.2898   85.6370   10.1387 C.ar    1  UNL1        0.0275
     25 C          63.2081   85.0554    9.1051 C.ar    1  UNL1        0.0029
     26 C          62.7381   84.8946    7.6897 C.ar    1  UNL1        0.0369
     27 C          61.3499   85.3154    7.3080 C.ar    1  UNL1        0.1443
     28 C          60.4316   85.8971    8.3416 C.ar    1  UNL1        0.0369
     29 C          60.9016   86.0579    9.7570 C.ar    1  UNL1        0.0029
     30 O          60.8800   85.1546    5.8926 O.3     1  UNL1       -0.4236
     31 C          61.7546   84.4687    4.8853 C.3     1  UNL1        0.5087
     32 F          63.1898   84.1793    5.2117 F       1  UNL1       -0.1550
     33 F          61.1940   84.0723    3.5517 F       1  UNL1       -0.1550
@<TRIPOS>BOND
     1     1     2    1
     2     2     3   am
     3     3     4    2
     4     3     5    1
     5     5    24    1
     6    24    25   ar
     7    25    26   ar
     8    26    27   ar
     9    27    30    1
    10    30    31    1
    11    31    32    1
    12    31    33    1
    13    27    28   ar
    14    28    29   ar
    15     5    11    1
    16    11    12   ar
    17    12    13   ar
    18    13    14   ar
    19    14    15    1
    20    14    16   ar
    21    16    18    1
    22    18    19    3
    23    19    20    1
    24    20    21    1
    25    21    22    1
    26    22    23    1
    27    16    17   ar
    28     5     6    1
    29     6     7    2
    30     7     8    1
    31     7     2    1
    32    29    24   ar
    33    17    11   ar
    34     8     9    1
    35     8    10    1
@<TRIPOS>MOLECULE
*****
 33 35 0 0 0
SMALL
GASTEIGER

@<TRIPOS>ATOM
      1 C          62.4509   78.4601   11.1824 C.3     1  UNL1        0.2160
      2 N          62.6947   79.6921   12.0027 N.am    1  UNL1       -0.1416
      3 C          62.8303   81.0898   11.4755 C.2     1  UNL1        0.3314
      4 O          62.7460   81.5009   10.0354 O.2     1  UNL1       -0.2520
      5 C          63.0651   82.0041   12.6412 C.3     1  UNL1        0.2669
      6 N          63.0745   81.1715   13.8888 N.2     1  UNL1       -0.0890
      7 C          62.8456   79.7425   13.4942 C.2     1  UNL1        0.3741
      8 N          62.7792   78.5700   14.4273 N.pl3   1  UNL1       -0.2512
      9 H          62.8909   78.7049   15.3961 H       1  UNL1        0.2412
     10 H          62.6240   77.6655   14.0710 H       1  UNL1        0.2412
     11 C          63.1065   83.0747   11.5914 C.ar    1  UNL1        0.0281
     12 C          64.0388   82.9442   10.4236 C.ar    1  UNL1        0.0021
     13 C          64.0803   84.0148    9.3737 C.ar    1  UNL1        0.0301
     14 C          63.1894   85.2159    9.4916 C.ar    1  UNL1        0.1477
     15 F          63.2309   86.2863    8.4418 F       1  UNL1       -0.2035
     16 C          62.2571   85.3463   10.6594 C.ar    1  UNL1        0.0689
     17 C          62.2156   84.2757   11.7093 C.ar    1  UNL1        0.0103
     18 C          61.3663   86.5473   10.7774 C.1     1  UNL1       -0.0621
     19 C          60.4754   87.7483   10.8954 C.1     1  UNL1       -0.0863
     20 C          59.5846   88.9493   11.0133 C.3     1  UNL1        0.0793
     21 C          60.1614   90.3273   10.8772 C.3     1  UNL1        0.0521
     22 C          61.6421   90.5357   10.9960 C.3     1  UNL1        0.1943
     23 F          62.5649   89.9680    9.9587 F       1  UNL1       -0.2343
     24 C          63.3085   83.1423   13.5874 C.ar    1  UNL1        0.0275
     25 C          64.5590   83.9620   13.4686 C.ar    1  UNL1        0.0029
     26 C          64.8024   85.1002   14.4148 C.ar    1  UNL1        0.0369
     27 C          63.7952   85.4186   15.4798 C.ar    1  UNL1        0.1443
     28 C          62.5447   84.5989   15.5986 C.ar    1  UNL1        0.0369
     29 C          62.3013   83.4608   14.6524 C.ar    1  UNL1        0.0029
     30 O          64.0387   86.5569   16.4260 O.3     1  UNL1       -0.4236
     31 C          62.9052   87.1162   17.2337 C.3     1  UNL1        0.5087
     32 F          62.3405   86.3293   18.3791 F       1  UNL1       -0.1550
     33 F          62.3365   88.4626   16.8961 F       1  UNL1       -0.1550
@<TRIPOS>BOND
     1     1     2    1
     2     2     3   am
     3     3     4    2
     4     3     5    1
     5     5    24    1
     6    24    25   ar
     7    25    26   ar
     8    26    27   ar
     9    27    30    1
    10    30    31    1
    11    31    32    1
    12    31    33    1
    13    27    28   ar
    14    28    29   ar
    15     5    11    1
    16    11    12   ar
    17    12    13   ar
    18    13    14   ar
    19    14    15    1
    20    14    16   ar
    21    16    18    1
    22    18    19    3
    23    19    20    1
    24    20    21    1
    25    21    22    1
    26    22    23    1
    27    16    17   ar
    28     5     6    1
    29     6     7    2
    30     7     8    1
    31     7     2    1
    32    29    24   ar
    33    17    11   ar
    34     8     9    1
    35     8    10    1
