@<TRIPOS>MOLECULE
*****
 44 48 0 0 0
SMALL
GASTEIGER

@<TRIPOS>ATOM
      1 C          62.3034   85.1655    9.9676 C.ar    1  UNL1        0.0611
      2 C          61.2337   84.9156    8.9463 C.ar    1  UNL1        0.1037
      3 N          60.4476   86.1821    8.7791 N.ar    1  UNL1       -0.2269
      4 C          61.0315   87.2148    9.6970 C.ar    1  UNL1        0.1407
      5 N          60.6670   88.6460    9.9590 N.ar    1  UNL1       -0.3374
      6 C          61.4495   89.4489   10.9554 C.ar    1  UNL1        0.0735
      7 C          62.5965   88.8206   11.6900 C.ar    1  UNL1        0.0186
      8 C          62.9610   87.3894   11.4281 C.ar    1  UNL1        0.0047
      9 C          62.1785   86.5865   10.4316 C.ar    1  UNL1        0.0386
     10 H          59.9142   89.0584    9.4769 H       1  UNL1        0.1674
     11 C          63.3790   89.6236   12.6865 C.ar    1  UNL1        0.0208
     12 C          64.0255   88.9429   13.8563 C.ar    1  UNL1        0.0064
     13 C          64.8080   89.7459   14.8529 C.ar    1  UNL1        0.0577
     14 C          64.9440   91.2296   14.6794 C.ar    1  UNL1        0.2249
     15 N          64.2974   91.9103   13.5095 N.ar    1  UNL1       -0.2101
     16 C          63.5150   91.1073   12.5131 C.ar    1  UNL1        0.1021
     17 O          65.7264   92.0326   15.6759 O.3     1  UNL1       -0.4602
     18 C          67.2246   92.0587   15.6073 C.3     1  UNL1        0.2085
     19 C          67.9106   92.6541   14.4136 C.3     1  UNL1        0.0647
     20 C          67.9040   91.9241   13.1033 C.3     1  UNL1        0.0761
     21 N          67.5456   92.6514   11.8414 N.3     1  UNL1       -0.2683
     22 C          68.1985   92.2715   10.5454 C.3     1  UNL1        0.1046
     23 C          67.8400   92.9988    9.2835 C.3     1  UNL1        0.1595
     24 O          66.8287   94.1062    9.3175 O.3     1  UNL1       -0.3508
     25 C          66.1759   94.4861   10.6133 C.3     1  UNL1        0.1595
     26 C          66.5343   93.7588   11.8753 C.3     1  UNL1        0.1046
     27 C          63.3198   84.1694   10.4417 C.2     1  UNL1        0.2015
     28 O          64.6688   84.1057    9.7891 O.2     1  UNL1       -0.2864
     29 C          62.3492   82.8528   14.0576 C.ar    1  UNL1        0.0920
     30 C          62.3214   81.3716   13.8220 C.ar    1  UNL1        0.0204
     31 C          62.6264   80.8231   12.4596 C.ar    1  UNL1        0.0312
     32 C          62.9592   81.7556   11.3328 C.ar    1  UNL1        0.1454
     33 F          63.2642   81.2071    9.9705 F       1  UNL1       -0.2040
     34 C          62.9870   83.2367   11.5685 C.ar    1  UNL1        0.0951
     35 C          62.6820   83.7853   12.9309 C.ar    1  UNL1        0.1598
     36 F          62.7098   85.2664   13.1664 F       1  UNL1       -0.2026
     37 N          62.0442   83.4013   15.4200 N.pl3   1  UNL1       -0.2166
     38 H          61.3751   82.9584   15.9905 H       1  UNL1        0.1734
     39 S          62.7586   84.6245   15.9131 S.O2    1  UNL1        0.0540
     40 O          64.0775   83.9688   15.6291 O.2     1  UNL1       -0.1545
     41 O          61.4398   85.2803   16.1972 O.2     1  UNL1       -0.1545
     42 C          63.4729   85.8478   16.4063 C.3     1  UNL1        0.1724
     43 C          63.0263   88.2112   17.3888 C.3     1  UNL1        0.0019
     44 C          62.8319   86.7248   17.4408 C.3     1  UNL1        0.0273
@<TRIPOS>BOND
     1    43    44    1
     2    44    42    1
     3    42    39    1
     4    39    40    2
     5    39    41    2
     6    39    37    1
     7    37    29    1
     8    29    30   ar
     9    30    31   ar
    10    31    32   ar
    11    32    33    1
    12    32    34   ar
    13    34    27    1
    14    27    28    2
    15    27     1    1
    16     1     2   ar
    17     2     3   ar
    18     3     4   ar
    19     4     5   ar
    20     5     6   ar
    21     6     7   ar
    22     7    11    1
    23    11    12   ar
    24    12    13   ar
    25    13    14   ar
    26    14    17    1
    27    17    18    1
    28    18    19    1
    29    19    20    1
    30    20    21    1
    31    21    22    1
    32    22    23    1
    33    23    24    1
    34    24    25    1
    35    25    26    1
    36    14    15   ar
    37    15    16   ar
    38     7     8   ar
    39     8     9   ar
    40    34    35   ar
    41    35    36    1
    42    35    29   ar
    43     9     1   ar
    44     9     4    1
    45    16    11   ar
    46    26    21    1
    47    37    38    1
    48     5    10    1
@<TRIPOS>MOLECULE
*****
 44 48 0 0 0
SMALL
GASTEIGER

@<TRIPOS>ATOM
      1 C          63.3175   83.6502   13.1646 C.ar    1  UNL1        0.0611
      2 C          62.7249   82.3847   13.7100 C.ar    1  UNL1        0.1037
      3 N          62.2677   82.6541   15.1130 N.ar    1  UNL1       -0.2269
      4 C          62.5778   84.0860   15.4347 C.ar    1  UNL1        0.1407
      5 N          62.3531   84.9088   16.6686 N.ar    1  UNL1       -0.3374
      6 C          62.7774   86.3472   16.6983 C.ar    1  UNL1        0.0735
      7 C          63.4262   86.9629   15.4941 C.ar    1  UNL1        0.0186
      8 C          63.6509   86.1400   14.2603 C.ar    1  UNL1        0.0047
      9 C          63.2266   84.7016   14.2306 C.ar    1  UNL1        0.0386
     10 H          61.9273   84.5048   17.4589 H       1  UNL1        0.1674
     11 C          63.8505   88.4014   15.5239 C.ar    1  UNL1        0.0208
     12 C          64.8863   88.8979   14.5593 C.ar    1  UNL1        0.0064
     13 C          65.3105   90.3364   14.5890 C.ar    1  UNL1        0.0577
     14 C          64.6989   91.2783   15.5834 C.ar    1  UNL1        0.2249
     15 N          63.6630   90.7817   16.5481 N.ar    1  UNL1       -0.2101
     16 C          63.2388   89.3432   16.5183 C.ar    1  UNL1        0.1021
     17 O          65.1230   92.7167   15.6132 O.3     1  UNL1       -0.4602
     18 C          66.4505   93.1192   15.0423 C.3     1  UNL1        0.2085
     19 C          66.5114   93.8928   13.7586 C.3     1  UNL1        0.0647
     20 C          66.1770   93.2196   12.4606 C.3     1  UNL1        0.0761
     21 N          66.7344   93.7524   11.1740 N.3     1  UNL1       -0.2683
     22 C          67.4518   92.8336   10.2299 C.3     1  UNL1        0.1046
     23 C          68.0093   93.3664    8.9434 C.3     1  UNL1        0.1595
     24 O          67.8494   94.8180    8.6008 O.3     1  UNL1       -0.3508
     25 C          67.1320   95.7368    9.5448 C.3     1  UNL1        0.1595
     26 C          66.5745   95.2040   10.8315 C.3     1  UNL1        0.1046
     27 C          63.8991   83.8322   11.7940 C.2     1  UNL1        0.2015
     28 O          65.2763   83.3220   11.4897 O.2     1  UNL1       -0.2864
     29 C          61.2488   86.2098   10.0407 C.ar    1  UNL1        0.0920
     30 C          61.5115   85.9094    8.5947 C.ar    1  UNL1        0.0204
     31 C          62.5699   84.9166    8.2152 C.ar    1  UNL1        0.0312
     32 C          63.3658   84.2242    9.2815 C.ar    1  UNL1        0.1454
     33 F          64.4243   83.2315    8.9020 F       1  UNL1       -0.2040
     34 C          63.1032   84.5246   10.7275 C.ar    1  UNL1        0.0951
     35 C          62.0447   85.5174   11.1070 C.ar    1  UNL1        0.1598
     36 F          61.7821   85.8178   12.5530 F       1  UNL1       -0.2026
     37 N          60.1904   87.2026   10.4202 N.pl3   1  UNL1       -0.2166
     38 H          59.2391   86.9740   10.3106 H       1  UNL1        0.1734
     39 S          60.5813   88.5436   10.9667 S.O2    1  UNL1        0.0540
     40 O          59.7431   88.2915   12.1848 O.2     1  UNL1       -0.1545
     41 O          61.4195   88.7957    9.7486 O.2     1  UNL1       -0.1545
     42 C          60.9723   89.8847   11.5131 C.3     1  UNL1        0.1724
     43 C          63.3428   90.9481   11.5082 C.3     1  UNL1        0.0019
     44 C          62.3144   90.0699   12.1570 C.3     1  UNL1        0.0273
@<TRIPOS>BOND
     1    43    44    1
     2    44    42    1
     3    42    39    1
     4    39    40    2
     5    39    41    2
     6    39    37    1
     7    37    29    1
     8    29    30   ar
     9    30    31   ar
    10    31    32   ar
    11    32    33    1
    12    32    34   ar
    13    34    27    1
    14    27    28    2
    15    27     1    1
    16     1     2   ar
    17     2     3   ar
    18     3     4   ar
    19     4     5   ar
    20     5     6   ar
    21     6     7   ar
    22     7    11    1
    23    11    12   ar
    24    12    13   ar
    25    13    14   ar
    26    14    17    1
    27    17    18    1
    28    18    19    1
    29    19    20    1
    30    20    21    1
    31    21    22    1
    32    22    23    1
    33    23    24    1
    34    24    25    1
    35    25    26    1
    36    14    15   ar
    37    15    16   ar
    38     7     8   ar
    39     8     9   ar
    40    34    35   ar
    41    35    36    1
    42    35    29   ar
    43     9     1   ar
    44     9     4    1
    45    16    11   ar
    46    26    21    1
    47    37    38    1
    48     5    10    1
@<TRIPOS>MOLECULE
*****
 44 48 0 0 0
SMALL
GASTEIGER

@<TRIPOS>ATOM
      1 C          64.0719   89.0408   14.0334 C.ar    1  UNL1        0.0611
      2 C          64.7022   88.0736   14.9911 C.ar    1  UNL1        0.1037
      3 N          64.3654   86.6846   14.5358 N.ar    1  UNL1       -0.2269
      4 C          63.5271   86.7934   13.2967 C.ar    1  UNL1        0.1407
      5 N          62.9054   85.7546   12.4110 N.ar    1  UNL1       -0.3374
      6 C          62.1024   86.1721   11.2149 C.ar    1  UNL1        0.0735
      7 C          61.9210   87.6284   10.9044 C.ar    1  UNL1        0.0186
      8 C          62.5427   88.6672   11.7900 C.ar    1  UNL1        0.0047
      9 C          63.3457   88.2497   12.9862 C.ar    1  UNL1        0.0386
     10 H          63.0245   84.7988   12.6148 H       1  UNL1        0.1674
     11 C          61.1180   88.0458    9.7081 C.ar    1  UNL1        0.0208
     12 C          60.4918   87.0072    8.8256 C.ar    1  UNL1        0.0064
     13 C          59.6887   87.4246    7.6293 C.ar    1  UNL1        0.0577
     14 C          59.5119   88.8808    7.3158 C.ar    1  UNL1        0.2249
     15 N          60.1381   89.9195    8.1984 N.ar    1  UNL1       -0.2101
     16 C          60.9411   89.5020    9.3946 C.ar    1  UNL1        0.1021
     17 O          58.7089   89.2982    6.1196 O.3     1  UNL1       -0.4602
     18 C          58.6699   90.7403    5.7086 C.3     1  UNL1        0.2085
     19 C          59.7508   91.2998    4.8319 C.3     1  UNL1        0.0647
     20 C          59.4850   92.5183    3.9986 C.3     1  UNL1        0.0761
     21 N          60.3025   92.7783    2.7681 N.3     1  UNL1       -0.2683
     22 C          61.7667   92.4526    2.7577 C.3     1  UNL1        0.1046
     23 C          62.5842   92.7126    1.5273 C.3     1  UNL1        0.1595
     24 O          61.9375   93.2982    0.3071 O.3     1  UNL1       -0.3508
     25 C          60.4734   93.6239    0.3174 C.3     1  UNL1        0.1595
     26 C          59.6558   93.3639    1.5479 C.3     1  UNL1        0.1046
     27 C          64.1536   90.5367   14.1095 C.2     1  UNL1        0.2015
     28 O          63.1270   91.3053   14.8874 O.2     1  UNL1       -0.2864
     29 C          66.1055   92.6827   11.4012 C.ar    1  UNL1        0.0920
     30 C          67.4786   92.7185   12.0038 C.ar    1  UNL1        0.0204
     31 C          67.7434   92.0271   13.3083 C.ar    1  UNL1        0.0312
     32 C          66.6352   91.2998   14.0102 C.ar    1  UNL1        0.1454
     33 F          66.9000   90.6084   15.3148 F       1  UNL1       -0.2040
     34 C          65.2620   91.2640   13.4076 C.ar    1  UNL1        0.0951
     35 C          64.9972   91.9554   12.1031 C.ar    1  UNL1        0.1598
     36 F          63.6240   91.9196   11.5005 F       1  UNL1       -0.2026
     37 N          65.8407   93.3742   10.0966 N.pl3   1  UNL1       -0.2166
     38 H          65.1734   93.0082    9.4721 H       1  UNL1        0.1734
     39 S          66.5926   94.6232    9.7437 S.O2    1  UNL1        0.0540
     40 O          67.4931   93.8274    8.8460 O.2     1  UNL1       -0.1545
     41 O          65.6920   95.4189   10.6413 O.2     1  UNL1       -0.1545
     42 C          67.3444   95.8722    9.3908 C.3     1  UNL1        0.1724
     43 C          65.7741   96.5044    7.4198 C.3     1  UNL1        0.0019
     44 C          67.1322   96.5236    8.0564 C.3     1  UNL1        0.0273
@<TRIPOS>BOND
     1    43    44    1
     2    44    42    1
     3    42    39    1
     4    39    40    2
     5    39    41    2
     6    39    37    1
     7    37    29    1
     8    29    30   ar
     9    30    31   ar
    10    31    32   ar
    11    32    33    1
    12    32    34   ar
    13    34    27    1
    14    27    28    2
    15    27     1    1
    16     1     2   ar
    17     2     3   ar
    18     3     4   ar
    19     4     5   ar
    20     5     6   ar
    21     6     7   ar
    22     7    11    1
    23    11    12   ar
    24    12    13   ar
    25    13    14   ar
    26    14    17    1
    27    17    18    1
    28    18    19    1
    29    19    20    1
    30    20    21    1
    31    21    22    1
    32    22    23    1
    33    23    24    1
    34    24    25    1
    35    25    26    1
    36    14    15   ar
    37    15    16   ar
    38     7     8   ar
    39     8     9   ar
    40    34    35   ar
    41    35    36    1
    42    35    29   ar
    43     9     1   ar
    44     9     4    1
    45    16    11   ar
    46    26    21    1
    47    37    38    1
    48     5    10    1
@<TRIPOS>MOLECULE
*****
 44 48 0 0 0
SMALL
GASTEIGER

@<TRIPOS>ATOM
      1 C          63.8428   89.9922   14.8617 C.ar    1  UNL1        0.0611
      2 C          63.6538   91.0243   15.9336 C.ar    1  UNL1        0.1037
      3 N          63.2783   90.3137   17.2001 N.ar    1  UNL1       -0.2269
      4 C          63.2352   88.8425   16.9110 C.ar    1  UNL1        0.1407
      5 N          62.9234   87.6581   17.7769 N.ar    1  UNL1       -0.3374
      6 C          62.9604   86.2750   17.1976 C.ar    1  UNL1        0.0735
      7 C          63.3093   86.0763   15.7524 C.ar    1  UNL1        0.0186
      8 C          63.6211   87.2607   14.8864 C.ar    1  UNL1        0.0047
      9 C          63.5841   88.6438   15.4657 C.ar    1  UNL1        0.0386
     10 H          62.6944   87.7885   18.7255 H       1  UNL1        0.1674
     11 C          63.3463   84.6931   15.1731 C.ar    1  UNL1        0.0208
     12 C          64.6127   84.1689   14.5637 C.ar    1  UNL1        0.0064
     13 C          64.6498   82.7857   13.9844 C.ar    1  UNL1        0.0577
     14 C          63.4204   81.9268   14.0145 C.ar    1  UNL1        0.2249
     15 N          62.1539   82.4511   14.6239 N.ar    1  UNL1       -0.2101
     16 C          62.1169   83.8343   15.2031 C.ar    1  UNL1        0.1021
     17 O          63.4574   80.5437   13.4353 O.3     1  UNL1       -0.4602
     18 C          63.1524   80.3308   11.9821 C.3     1  UNL1        0.2085
     19 C          62.7241   81.4874   11.1284 C.3     1  UNL1        0.0647
     20 C          63.7162   82.5456   10.7465 C.3     1  UNL1        0.0761
     21 N          63.2451   83.9302   10.4137 N.3     1  UNL1       -0.2683
     22 C          62.7409   84.8325   11.5008 C.3     1  UNL1        0.1046
     23 C          62.2697   86.2171   11.1681 C.3     1  UNL1        0.1595
     24 O          62.3028   86.6996    9.7482 O.3     1  UNL1       -0.3508
     25 C          62.8070   85.7975    8.6611 C.3     1  UNL1        0.1595
     26 C          63.2782   84.4127    8.9938 C.3     1  UNL1        0.1046
     27 C          64.2236   90.2613   13.4360 C.2     1  UNL1        0.2015
     28 O          63.7336   89.3560   12.3451 O.2     1  UNL1       -0.2864
     29 C          65.6270   93.4856   11.5963 C.ar    1  UNL1        0.0920
     30 C          66.8365   93.7847   12.4316 C.ar    1  UNL1        0.0204
     31 C          67.1749   92.9094   13.6018 C.ar    1  UNL1        0.0312
     32 C          66.3041   91.7349   13.9366 C.ar    1  UNL1        0.1454
     33 F          66.6425   90.8596   15.1067 F       1  UNL1       -0.2040
     34 C          65.0946   91.4358   13.1012 C.ar    1  UNL1        0.0951
     35 C          64.7561   92.3112   11.9311 C.ar    1  UNL1        0.1598
     36 F          63.5467   92.0120   11.0958 F       1  UNL1       -0.2026
     37 N          65.2885   94.3610   10.4262 N.pl3   1  UNL1       -0.2166
     38 H          64.3667   94.3874   10.0816 H       1  UNL1        0.1734
     39 S          66.3546   95.1961    9.7811 S.O2    1  UNL1        0.0540
     40 O          66.8623   93.9863    9.0541 O.2     1  UNL1       -0.1545
     41 O          65.8469   96.4059   10.5081 O.2     1  UNL1       -0.1545
     42 C          67.4206   96.0312    9.1361 C.3     1  UNL1        0.1724
     43 C          65.7560   96.7270    7.2665 C.3     1  UNL1        0.0019
     44 C          67.0975   96.8555    7.9252 C.3     1  UNL1        0.0273
@<TRIPOS>BOND
     1    43    44    1
     2    44    42    1
     3    42    39    1
     4    39    40    2
     5    39    41    2
     6    39    37    1
     7    37    29    1
     8    29    30   ar
     9    30    31   ar
    10    31    32   ar
    11    32    33    1
    12    32    34   ar
    13    34    27    1
    14    27    28    2
    15    27     1    1
    16     1     2   ar
    17     2     3   ar
    18     3     4   ar
    19     4     5   ar
    20     5     6   ar
    21     6     7   ar
    22     7    11    1
    23    11    12   ar
    24    12    13   ar
    25    13    14   ar
    26    14    17    1
    27    17    18    1
    28    18    19    1
    29    19    20    1
    30    20    21    1
    31    21    22    1
    32    22    23    1
    33    23    24    1
    34    24    25    1
    35    25    26    1
    36    14    15   ar
    37    15    16   ar
    38     7     8   ar
    39     8     9   ar
    40    34    35   ar
    41    35    36    1
    42    35    29   ar
    43     9     1   ar
    44     9     4    1
    45    16    11   ar
    46    26    21    1
    47    37    38    1
    48     5    10    1
@<TRIPOS>MOLECULE
*****
 44 48 0 0 0
SMALL
GASTEIGER

@<TRIPOS>ATOM
      1 C          64.0036   88.1599   14.1439 C.ar    1  UNL1        0.0611
      2 C          64.6617   87.1258   15.0086 C.ar    1  UNL1        0.1037
      3 N          64.3800   85.7776   14.4146 N.ar    1  UNL1       -0.2269
      4 C          63.5478   85.9783   13.1829 C.ar    1  UNL1        0.1407
      5 N          62.9719   85.0106   12.1920 N.ar    1  UNL1       -0.3374
      6 C          62.1633   85.5153   11.0339 C.ar    1  UNL1        0.0735
      7 C          61.9306   86.9877   10.8665 C.ar    1  UNL1        0.0186
      8 C          62.5066   87.9554   11.8574 C.ar    1  UNL1        0.0047
      9 C          63.3152   87.4507   13.0155 C.ar    1  UNL1        0.0386
     10 H          63.1246   84.0442   12.3019 H       1  UNL1        0.1674
     11 C          61.1220   87.4924    9.7083 C.ar    1  UNL1        0.0208
     12 C          60.9644   88.9679    9.4900 C.ar    1  UNL1        0.0064
     13 C          60.1557   89.4726    8.3317 C.ar    1  UNL1        0.0577
     14 C          59.5047   88.5016    7.3919 C.ar    1  UNL1        0.2249
     15 N          59.6623   87.0259    7.6102 N.ar    1  UNL1       -0.2101
     16 C          60.4710   86.5214    8.7684 C.ar    1  UNL1        0.1021
     17 O          58.6961   89.0062    6.2337 O.3     1  UNL1       -0.4602
     18 C          58.6742   90.4721    5.9163 C.3     1  UNL1        0.2085
     19 C          59.8060   91.0906    5.1503 C.3     1  UNL1        0.0647
     20 C          59.5490   92.2586    4.2450 C.3     1  UNL1        0.0761
     21 N          60.5376   92.6078    3.1723 N.3     1  UNL1       -0.2683
     22 C          60.1375   93.5221    2.0525 C.3     1  UNL1        0.1046
     23 C          61.1261   93.8713    0.9797 C.3     1  UNL1        0.1595
     24 O          62.5147   93.3062    1.0268 O.3     1  UNL1       -0.3508
     25 C          62.9148   92.3919    2.1466 C.3     1  UNL1        0.1595
     26 C          61.9262   92.0427    3.2194 C.3     1  UNL1        0.1046
     27 C          64.0294   89.6428   14.3681 C.2     1  UNL1        0.2015
     28 O          63.8032   90.1974   15.7433 O.2     1  UNL1       -0.2864
     29 C          65.8791   92.1412   11.9010 C.ar    1  UNL1        0.0920
     30 C          64.7854   92.4277   10.9152 C.ar    1  UNL1        0.0204
     31 C          63.4397   91.7859   11.0804 C.ar    1  UNL1        0.0312
     32 C          63.1877   90.8576   12.2313 C.ar    1  UNL1        0.1454
     33 F          61.8420   90.2158   12.3965 F       1  UNL1       -0.2040
     34 C          64.2814   90.5711   13.2171 C.ar    1  UNL1        0.0951
     35 C          65.6270   91.2130   13.0519 C.ar    1  UNL1        0.1598
     36 F          66.7207   90.9264   14.0378 F       1  UNL1       -0.2026
     37 N          67.2247   92.7831   11.7358 N.pl3   1  UNL1       -0.2166
     38 H          67.8726   92.7658   12.4768 H       1  UNL1        0.1734
     39 S          67.5832   93.4512   10.4415 S.O2    1  UNL1        0.0540
     40 O          68.0801   92.1422    9.9034 O.2     1  UNL1       -0.1545
     41 O          67.0863   94.7602   10.9797 O.2     1  UNL1       -0.1545
     42 C          67.9416   94.1194    9.1474 C.3     1  UNL1        0.1724
     43 C          67.3976   96.4729    8.1907 C.3     1  UNL1        0.0019
     44 C          66.9758   95.0671    8.4999 C.3     1  UNL1        0.0273
@<TRIPOS>BOND
     1    43    44    1
     2    44    42    1
     3    42    39    1
     4    39    40    2
     5    39    41    2
     6    39    37    1
     7    37    29    1
     8    29    30   ar
     9    30    31   ar
    10    31    32   ar
    11    32    33    1
    12    32    34   ar
    13    34    27    1
    14    27    28    2
    15    27     1    1
    16     1     2   ar
    17     2     3   ar
    18     3     4   ar
    19     4     5   ar
    20     5     6   ar
    21     6     7   ar
    22     7    11    1
    23    11    12   ar
    24    12    13   ar
    25    13    14   ar
    26    14    17    1
    27    17    18    1
    28    18    19    1
    29    19    20    1
    30    20    21    1
    31    21    22    1
    32    22    23    1
    33    23    24    1
    34    24    25    1
    35    25    26    1
    36    14    15   ar
    37    15    16   ar
    38     7     8   ar
    39     8     9   ar
    40    34    35   ar
    41    35    36    1
    42    35    29   ar
    43     9     1   ar
    44     9     4    1
    45    16    11   ar
    46    26    21    1
    47    37    38    1
    48     5    10    1
@<TRIPOS>MOLECULE
*****
 44 48 0 0 0
SMALL
GASTEIGER

@<TRIPOS>ATOM
      1 C          64.4279   90.6577   15.0708 C.ar    1  UNL1        0.0611
      2 C          64.0625   91.6879   16.0980 C.ar    1  UNL1        0.1037
      3 N          63.4170   90.9817   17.2533 N.ar    1  UNL1       -0.2269
      4 C          63.3835   89.5151   16.9400 C.ar    1  UNL1        0.1407
      5 N          62.8648   88.3362   17.7088 N.ar    1  UNL1       -0.3374
      6 C          62.9709   86.9571   17.1287 C.ar    1  UNL1        0.0735
      7 C          63.5956   86.7568   15.7798 C.ar    1  UNL1        0.0186
      8 C          64.1144   87.9358   15.0110 C.ar    1  UNL1        0.0047
      9 C          64.0083   89.3149   15.5911 C.ar    1  UNL1        0.0386
     10 H          62.4547   88.4676   18.5941 H       1  UNL1        0.1674
     11 C          63.7017   85.3776   15.1996 C.ar    1  UNL1        0.0208
     12 C          64.9216   84.9832   14.4210 C.ar    1  UNL1        0.0064
     13 C          65.0277   83.6040   13.8408 C.ar    1  UNL1        0.0577
     14 C          63.9138   82.6191   14.0394 C.ar    1  UNL1        0.2249
     15 N          62.6939   83.0136   14.8181 N.ar    1  UNL1       -0.2101
     16 C          62.5878   84.3928   15.3982 C.ar    1  UNL1        0.1021
     17 O          64.0198   81.2399   13.4593 O.3     1  UNL1       -0.4602
     18 C          62.9639   80.7385   12.5194 C.3     1  UNL1        0.2085
     19 C          63.0246   81.0954   11.0637 C.3     1  UNL1        0.0647
     20 C          63.9519   82.1771   10.5948 C.3     1  UNL1        0.0761
     21 N          63.4201   83.5512   10.3141 N.3     1  UNL1       -0.2683
     22 C          63.5712   84.1491    8.9467 C.3     1  UNL1        0.1046
     23 C          63.0395   85.5233    8.6660 C.3     1  UNL1        0.1595
     24 O          62.3566   86.2996    9.7527 O.3     1  UNL1       -0.3508
     25 C          62.2055   85.7019   11.1200 C.3     1  UNL1        0.1595
     26 C          62.7373   84.3276   11.4008 C.3     1  UNL1        0.1046
     27 C          65.0957   90.9237   13.7542 C.2     1  UNL1        0.2015
     28 O          66.5898   91.0333   13.6797 O.2     1  UNL1       -0.2864
     29 C          62.0060   90.8061   11.2662 C.ar    1  UNL1        0.0920
     30 C          62.6167   91.3924   10.0279 C.ar    1  UNL1        0.0204
     31 C          64.0537   91.8225   10.0318 C.ar    1  UNL1        0.0312
     32 C          64.8801   91.6662   11.2738 C.ar    1  UNL1        0.1454
     33 F          66.3171   92.0963   11.2776 F       1  UNL1       -0.2040
     34 C          64.2694   91.0799   12.5121 C.ar    1  UNL1        0.0951
     35 C          62.8323   90.6499   12.5082 C.ar    1  UNL1        0.1598
     36 F          62.2217   90.0636   13.7465 F       1  UNL1       -0.2026
     37 N          60.5690   90.3761   11.2624 N.pl3   1  UNL1       -0.2166
     38 H          59.8929   90.9139   11.7346 H       1  UNL1        0.1734
     39 S          60.1620   89.1266   10.5391 S.O2    1  UNL1        0.0540
     40 O          60.2520   88.3547   11.8220 O.2     1  UNL1       -0.1545
     41 O          60.0720   89.8986    9.2562 O.2     1  UNL1       -0.1545
     42 C          59.7550   87.8772    9.8158 C.3     1  UNL1        0.1724
     43 C          59.0756   86.6884    7.6077 C.3     1  UNL1        0.0019
     44 C          59.6502   87.8772    8.3194 C.3     1  UNL1        0.0273
@<TRIPOS>BOND
     1    43    44    1
     2    44    42    1
     3    42    39    1
     4    39    40    2
     5    39    41    2
     6    39    37    1
     7    37    29    1
     8    29    30   ar
     9    30    31   ar
    10    31    32   ar
    11    32    33    1
    12    32    34   ar
    13    34    27    1
    14    27    28    2
    15    27     1    1
    16     1     2   ar
    17     2     3   ar
    18     3     4   ar
    19     4     5   ar
    20     5     6   ar
    21     6     7   ar
    22     7    11    1
    23    11    12   ar
    24    12    13   ar
    25    13    14   ar
    26    14    17    1
    27    17    18    1
    28    18    19    1
    29    19    20    1
    30    20    21    1
    31    21    22    1
    32    22    23    1
    33    23    24    1
    34    24    25    1
    35    25    26    1
    36    14    15   ar
    37    15    16   ar
    38     7     8   ar
    39     8     9   ar
    40    34    35   ar
    41    35    36    1
    42    35    29   ar
    43     9     1   ar
    44     9     4    1
    45    16    11   ar
    46    26    21    1
    47    37    38    1
    48     5    10    1
@<TRIPOS>MOLECULE
*****
 44 48 0 0 0
SMALL
GASTEIGER

@<TRIPOS>ATOM
      1 C          63.9004   87.5754   14.2278 C.ar    1  UNL1        0.0611
      2 C          64.6294   86.4999   14.9774 C.ar    1  UNL1        0.1037
      3 N          64.4697   85.2161   14.2183 N.ar    1  UNL1       -0.2269
      4 C          63.6420   85.4981   12.9996 C.ar    1  UNL1        0.1407
      5 N          63.1632   84.6155   11.8852 N.ar    1  UNL1       -0.3374
      6 C          62.3326   85.1911   10.7768 C.ar    1  UNL1        0.0735
      7 C          61.9807   86.6492   10.7826 C.ar    1  UNL1        0.0186
      8 C          62.4595   87.5318   11.8970 C.ar    1  UNL1        0.0047
      9 C          63.2901   86.9562   13.0054 C.ar    1  UNL1        0.0386
     10 H          63.3941   83.6585   11.8814 H       1  UNL1        0.1674
     11 C          61.1501   87.2248    9.6741 C.ar    1  UNL1        0.0208
     12 C          60.4657   86.3134    8.6988 C.ar    1  UNL1        0.0064
     13 C          59.6351   86.8890    7.5903 C.ar    1  UNL1        0.0577
     14 C          59.4888   88.3759    7.4571 C.ar    1  UNL1        0.2249
     15 N          60.1732   89.2872    8.4324 N.ar    1  UNL1       -0.2101
     16 C          61.0038   88.7117    9.5408 C.ar    1  UNL1        0.1021
     17 O          58.6582   88.9515    6.3486 O.3     1  UNL1       -0.4602
     18 C          58.7482   90.4134    6.0254 C.3     1  UNL1        0.2085
     19 C          59.8037   90.9094    5.0819 C.3     1  UNL1        0.0647
     20 C          59.6180   92.2156    4.3684 C.3     1  UNL1        0.0761
     21 N          60.3993   92.5068    3.1215 N.3     1  UNL1       -0.2683
     22 C          59.7167   93.1193    1.9345 C.3     1  UNL1        0.1046
     23 C          60.4980   93.4105    0.6877 C.3     1  UNL1        0.1595
     24 O          61.9619   93.0893    0.6277 O.3     1  UNL1       -0.3508
     25 C          62.6446   92.4768    1.8147 C.3     1  UNL1        0.1595
     26 C          61.8633   92.1856    3.0616 C.3     1  UNL1        0.1046
     27 C          63.7994   89.0169   14.6299 C.2     1  UNL1        0.2015
     28 O          63.4353   89.3787   16.0393 O.2     1  UNL1       -0.2864
     29 C          65.6260   91.9244   12.6397 C.ar    1  UNL1        0.0920
     30 C          64.5890   92.2565   11.6080 C.ar    1  UNL1        0.0204
     31 C          63.2889   91.5087   11.5835 C.ar    1  UNL1        0.0312
     32 C          63.0257   90.4289   12.5908 C.ar    1  UNL1        0.1454
     33 F          61.7256   89.6812   12.5664 F       1  UNL1       -0.2040
     34 C          64.0626   90.0968   13.6225 C.ar    1  UNL1        0.0951
     35 C          65.3627   90.8446   13.6470 C.ar    1  UNL1        0.1598
     36 F          66.3996   90.5124   14.6788 F       1  UNL1       -0.2026
     37 N          66.9261   92.6721   12.6641 N.pl3   1  UNL1       -0.2166
     38 H          67.4426   92.7887   11.8341 H       1  UNL1        0.1734
     39 S          67.4393   93.2422   13.9531 S.O2    1  UNL1        0.0540
     40 O          66.1772   94.0388   14.1033 O.2     1  UNL1       -0.1545
     41 O          68.7013   92.4456   13.8030 O.2     1  UNL1       -0.1545
     42 C          67.9525   93.8122   15.2421 C.3     1  UNL1        0.1724
     43 C          68.8129   91.8866   16.7594 C.3     1  UNL1        0.0019
     44 C          69.0761   93.1332   15.9678 C.3     1  UNL1        0.0273
@<TRIPOS>BOND
     1    43    44    1
     2    44    42    1
     3    42    39    1
     4    39    40    2
     5    39    41    2
     6    39    37    1
     7    37    29    1
     8    29    30   ar
     9    30    31   ar
    10    31    32   ar
    11    32    33    1
    12    32    34   ar
    13    34    27    1
    14    27    28    2
    15    27     1    1
    16     1     2   ar
    17     2     3   ar
    18     3     4   ar
    19     4     5   ar
    20     5     6   ar
    21     6     7   ar
    22     7    11    1
    23    11    12   ar
    24    12    13   ar
    25    13    14   ar
    26    14    17    1
    27    17    18    1
    28    18    19    1
    29    19    20    1
    30    20    21    1
    31    21    22    1
    32    22    23    1
    33    23    24    1
    34    24    25    1
    35    25    26    1
    36    14    15   ar
    37    15    16   ar
    38     7     8   ar
    39     8     9   ar
    40    34    35   ar
    41    35    36    1
    42    35    29   ar
    43     9     1   ar
    44     9     4    1
    45    16    11   ar
    46    26    21    1
    47    37    38    1
    48     5    10    1
@<TRIPOS>MOLECULE
*****
 44 48 0 0 0
SMALL
GASTEIGER

@<TRIPOS>ATOM
      1 C          63.3125   83.6704   13.5106 C.ar    1  UNL1        0.0611
      2 C          62.6335   82.4815   14.1233 C.ar    1  UNL1        0.1037
      3 N          62.1033   82.8911   15.4653 N.ar    1  UNL1       -0.2269
      4 C          62.4548   84.3332   15.6821 C.ar    1  UNL1        0.1407
      5 N          62.1908   85.2699   16.8235 N.ar    1  UNL1       -0.3374
      6 C          62.6742   86.6883   16.7567 C.ar    1  UNL1        0.0735
      7 C          63.4216   87.1699   15.5486 C.ar    1  UNL1        0.0186
      8 C          63.6855   86.2331   14.4072 C.ar    1  UNL1        0.0047
      9 C          63.2021   84.8148   14.4740 C.ar    1  UNL1        0.0386
     10 H          61.7003   84.9538   17.6164 H       1  UNL1        0.1674
     11 C          63.9050   88.5884   15.4819 C.ar    1  UNL1        0.0208
     12 C          63.4098   89.5970   16.4756 C.ar    1  UNL1        0.0064
     13 C          63.8932   91.0154   16.4089 C.ar    1  UNL1        0.0577
     14 C          64.8718   91.4252   15.3484 C.ar    1  UNL1        0.2249
     15 N          65.3669   90.4165   14.3547 N.ar    1  UNL1       -0.2101
     16 C          64.8835   88.9981   14.4214 C.ar    1  UNL1        0.1021
     17 O          65.3552   92.8436   15.2817 O.3     1  UNL1       -0.4602
     18 C          66.6752   93.1567   14.6419 C.3     1  UNL1        0.2085
     19 C          66.8054   93.1473   13.1475 C.3     1  UNL1        0.0647
     20 C          66.0811   94.1716   12.3252 C.3     1  UNL1        0.0761
     21 N          66.6459   94.6108   11.0069 N.3     1  UNL1       -0.2683
     22 C          66.6616   96.0665   10.6452 C.3     1  UNL1        0.1046
     23 C          67.2264   96.5058    9.3269 C.3     1  UNL1        0.1595
     24 O          67.7756   95.4894    8.3702 O.3     1  UNL1       -0.3508
     25 C          67.7600   94.0337    8.7318 C.3     1  UNL1        0.1595
     26 C          67.1952   93.5944   10.0502 C.3     1  UNL1        0.1046
     27 C          63.9841   83.7082   12.1699 C.2     1  UNL1        0.2015
     28 O          65.3612   83.1372   12.0044 O.2     1  UNL1       -0.2864
     29 C          61.4505   85.8966   10.0387 C.ar    1  UNL1        0.0920
     30 C          61.8674   85.5350    8.6439 C.ar    1  UNL1        0.0204
     31 C          62.9898   84.5644    8.4244 C.ar    1  UNL1        0.0312
     32 C          63.6954   83.9555    9.5997 C.ar    1  UNL1        0.1454
     33 F          64.8178   82.9849    9.3803 F       1  UNL1       -0.2040
     34 C          63.2785   84.3172   10.9945 C.ar    1  UNL1        0.0951
     35 C          62.1561   85.2877   11.2139 C.ar    1  UNL1        0.1598
     36 F          61.7393   85.6493   12.6088 F       1  UNL1       -0.2026
     37 N          60.3281   86.8672   10.2581 N.pl3   1  UNL1       -0.2166
     38 H          59.6949   86.7282   10.9990 H       1  UNL1        0.1734
     39 S          60.1705   88.0496    9.3487 S.O2    1  UNL1        0.0540
     40 O          61.0883   88.8474   10.2269 O.2     1  UNL1       -0.1545
     41 O          59.2527   87.2518    8.4705 O.2     1  UNL1       -0.1545
     42 C          60.0128   89.2320    8.4392 C.3     1  UNL1        0.1724
     43 C          59.4814   89.8539    5.9733 C.3     1  UNL1        0.0019
     44 C          59.1141   89.1424    7.2416 C.3     1  UNL1        0.0273
@<TRIPOS>BOND
     1    43    44    1
     2    44    42    1
     3    42    39    1
     4    39    40    2
     5    39    41    2
     6    39    37    1
     7    37    29    1
     8    29    30   ar
     9    30    31   ar
    10    31    32   ar
    11    32    33    1
    12    32    34   ar
    13    34    27    1
    14    27    28    2
    15    27     1    1
    16     1     2   ar
    17     2     3   ar
    18     3     4   ar
    19     4     5   ar
    20     5     6   ar
    21     6     7   ar
    22     7    11    1
    23    11    12   ar
    24    12    13   ar
    25    13    14   ar
    26    14    17    1
    27    17    18    1
    28    18    19    1
    29    19    20    1
    30    20    21    1
    31    21    22    1
    32    22    23    1
    33    23    24    1
    34    24    25    1
    35    25    26    1
    36    14    15   ar
    37    15    16   ar
    38     7     8   ar
    39     8     9   ar
    40    34    35   ar
    41    35    36    1
    42    35    29   ar
    43     9     1   ar
    44     9     4    1
    45    16    11   ar
    46    26    21    1
    47    37    38    1
    48     5    10    1
@<TRIPOS>MOLECULE
*****
 44 48 0 0 0
SMALL
GASTEIGER

@<TRIPOS>ATOM
      1 C          63.2089   83.1844   13.3221 C.ar    1  UNL1        0.0611
      2 C          63.3665   82.1881   14.4323 C.ar    1  UNL1        0.1037
      3 N          63.7837   82.9316   15.6665 N.ar    1  UNL1       -0.2269
      4 C          63.8839   84.3874   15.3191 C.ar    1  UNL1        0.1407
      5 N          64.2527   85.5909   16.1348 N.ar    1  UNL1       -0.3374
      6 C          64.2663   86.9506   15.5017 C.ar    1  UNL1        0.0735
      7 C          63.9110   87.1068   14.0528 C.ar    1  UNL1        0.0186
      8 C          63.5422   85.9033   13.2370 C.ar    1  UNL1        0.0047
      9 C          63.5286   84.5436   13.8701 C.ar    1  UNL1        0.0386
     10 H          64.4859   85.4883   17.0858 H       1  UNL1        0.1674
     11 C          63.9246   88.4667   13.4196 C.ar    1  UNL1        0.0208
     12 C          64.6237   89.6048   14.1021 C.ar    1  UNL1        0.0064
     13 C          64.6372   90.9646   13.4690 C.ar    1  UNL1        0.0577
     14 C          63.9517   91.1862   12.1533 C.ar    1  UNL1        0.2249
     15 N          63.2526   90.0480   11.4708 N.ar    1  UNL1       -0.2101
     16 C          63.2390   88.6882   12.1040 C.ar    1  UNL1        0.1021
     17 O          63.9652   92.5459   11.5202 O.3     1  UNL1       -0.4602
     18 C          64.9487   92.8563   10.4310 C.3     1  UNL1        0.2085
     19 C          65.9347   93.9730   10.6066 C.3     1  UNL1        0.0647
     20 C          66.2365   94.4982   11.9788 C.3     1  UNL1        0.0761
     21 N          66.8280   93.5902   13.0159 N.3     1  UNL1       -0.2683
     22 C          66.5913   93.8605   14.4723 C.3     1  UNL1        0.1046
     23 C          67.1827   92.9526   15.5095 C.3     1  UNL1        0.1595
     24 O          68.0109   91.7743   15.0903 O.3     1  UNL1       -0.3508
     25 C          68.2477   91.5039   13.6340 C.3     1  UNL1        0.1595
     26 C          67.6562   92.4119   12.5968 C.3     1  UNL1        0.1046
     27 C          62.8028   82.8757   11.9115 C.2     1  UNL1        0.2015
     28 O          62.3935   81.4822   11.5367 O.2     1  UNL1       -0.2864
     29 C          61.8728   86.2102    9.9707 C.ar    1  UNL1        0.0920
     30 C          62.8121   86.1304    8.8040 C.ar    1  UNL1        0.0204
     31 C          63.7483   84.9658    8.6731 C.ar    1  UNL1        0.0312
     32 C          63.7453   83.8809    9.7089 C.ar    1  UNL1        0.1454
     33 F          64.6815   82.7163    9.5780 F       1  UNL1       -0.2040
     34 C          62.8059   83.9607   10.8756 C.ar    1  UNL1        0.0951
     35 C          61.8697   85.1253   11.0065 C.ar    1  UNL1        0.1598
     36 F          60.9304   85.2050   12.1733 F       1  UNL1       -0.2026
     37 N          60.9366   87.3748   10.1016 N.pl3   1  UNL1       -0.2166
     38 H          60.8278   87.8237   10.9711 H       1  UNL1        0.1734
     39 S          60.1661   87.8555    8.9078 S.O2    1  UNL1        0.0540
     40 O          60.8805   89.1726    8.9771 O.2     1  UNL1       -0.1545
     41 O          59.4516   86.5384    8.8386 O.2     1  UNL1       -0.1545
     42 C          59.3955   88.3362    7.7140 C.3     1  UNL1        0.1724
     43 C          59.0406   90.1024    5.8419 C.3     1  UNL1        0.0019
     44 C          59.6724   89.6939    7.1396 C.3     1  UNL1        0.0273
@<TRIPOS>BOND
     1    43    44    1
     2    44    42    1
     3    42    39    1
     4    39    40    2
     5    39    41    2
     6    39    37    1
     7    37    29    1
     8    29    30   ar
     9    30    31   ar
    10    31    32   ar
    11    32    33    1
    12    32    34   ar
    13    34    27    1
    14    27    28    2
    15    27     1    1
    16     1     2   ar
    17     2     3   ar
    18     3     4   ar
    19     4     5   ar
    20     5     6   ar
    21     6     7   ar
    22     7    11    1
    23    11    12   ar
    24    12    13   ar
    25    13    14   ar
    26    14    17    1
    27    17    18    1
    28    18    19    1
    29    19    20    1
    30    20    21    1
    31    21    22    1
    32    22    23    1
    33    23    24    1
    34    24    25    1
    35    25    26    1
    36    14    15   ar
    37    15    16   ar
    38     7     8   ar
    39     8     9   ar
    40    34    35   ar
    41    35    36    1
    42    35    29   ar
    43     9     1   ar
    44     9     4    1
    45    16    11   ar
    46    26    21    1
    47    37    38    1
    48     5    10    1
