@<TRIPOS>MOLECULE
*****
 26 29 0 0 0
SMALL
GASTEIGER

@<TRIPOS>ATOM
      1 C          63.5713   89.8066   13.3320 C.3     1  UNL1        0.2068
      2 C          62.4215   84.5941   11.1110 C.3     1  UNL1        0.0065
      3 C          62.2210   86.0778   11.0185 C.3     1  UNL1        0.0438
      4 C          62.8025   87.1054   11.9436 C.3     1  UNL1        0.1025
      5 N          62.3448   88.4570   11.4814 N.am    1  UNL1       -0.2581
      6 C          62.6906   89.7704   12.1182 C.2     1  UNL1        0.2419
      7 O          62.1560   91.0475   11.5413 O.2     1  UNL1       -0.2739
      8 C          61.4804   88.2648   10.2707 C.ar    1  UNL1        0.0499
      9 C          60.7530   89.2386    9.3918 C.ar    1  UNL1        0.0146
     10 C          59.9493   88.7421    8.2268 C.ar    1  UNL1        0.0013
     11 C          59.8728   87.2716    7.9407 C.ar    1  UNL1       -0.0002
     12 C          60.6001   86.2977    8.8196 C.ar    1  UNL1       -0.0030
     13 C          61.4039   86.7943    9.9846 C.ar    1  UNL1       -0.0071
     14 C          64.5151   90.9538   13.5400 C.2     1  UNL1        0.3580
     15 N          65.0323   91.7226   12.3605 N.2     1  UNL1       -0.0039
     16 C          65.9761   92.8698   12.5684 C.2     1  UNL1        0.3159
     17 C          66.4026   93.2481   13.9558 C.3     1  UNL1        0.2333
     18 C          65.8853   92.4793   15.1354 C.2     1  UNL1        0.3644
     19 O          66.3118   92.8576   16.5228 O.2     1  UNL1       -0.2422
     20 N          64.9415   91.3321   14.9274 N.am    1  UNL1        0.0289
     21 N          66.4934   93.6387   11.3888 N.pl3   1  UNL1       -0.1888
     22 C          67.2135   92.9232   10.2845 C.3     1  UNL1        0.2343
     23 C          67.7309   93.6920    9.1050 C.3     1  UNL1        0.1929
     24 O          67.5280   95.1764    9.0298 O.3     1  UNL1       -0.3449
     25 C          66.8079   95.8918   10.1341 C.3     1  UNL1        0.1929
     26 C          66.2906   95.1230   11.3136 C.3     1  UNL1        0.2343
@<TRIPOS>BOND
     1     2     3    1
     2     3     4    1
     3     4     5    1
     4     5     6   am
     5     6     7    2
     6     6     1    1
     7     1    14    1
     8    14    15    1
     9    15    16    2
    10    16    21    1
    11    21    22    1
    12    22    23    1
    13    23    24    1
    14    24    25    1
    15    25    26    1
    16    16    17    1
    17    17    18    1
    18    18    19    2
    19    18    20    1
    20     5     8    1
    21     8     9   ar
    22     9    10   ar
    23    10    11   ar
    24    11    12   ar
    25    12    13   ar
    26    13     3    1
    27    20    14    2
    28    13     8   ar
    29    26    21    1
@<TRIPOS>MOLECULE
*****
 26 29 0 0 0
SMALL
GASTEIGER

@<TRIPOS>ATOM
      1 C          62.1864   89.5438   11.4750 C.3     1  UNL1        0.2068
      2 C          66.1145   93.6106   10.2685 C.3     1  UNL1        0.0065
      3 C          65.4693   92.7494   11.3135 C.3     1  UNL1        0.0438
      4 C          64.3770   91.7484   11.0797 C.3     1  UNL1        0.1025
      5 N          64.0358   91.1184   12.3975 N.am    1  UNL1       -0.2581
      6 C          62.9957   90.0621   12.6269 C.2     1  UNL1        0.2419
      7 O          62.7648   89.5242   14.0078 O.2     1  UNL1       -0.2739
      8 C          64.9173   91.7300   13.4458 C.ar    1  UNL1        0.0499
      9 C          65.0276   91.4993   14.9238 C.ar    1  UNL1        0.0146
     10 C          66.0239   92.2767   15.7319 C.ar    1  UNL1        0.0013
     11 C          66.9099   93.2847   15.0619 C.ar    1  UNL1       -0.0002
     12 C          66.7996   93.5154   13.5839 C.ar    1  UNL1       -0.0030
     13 C          65.8032   92.7381   12.7759 C.ar    1  UNL1       -0.0071
     14 C          62.2570   88.0927   11.1017 C.2     1  UNL1        0.3580
     15 N          62.6204   87.0691   12.1361 N.2     1  UNL1       -0.0039
     16 C          62.6910   85.6180   11.7628 C.2     1  UNL1        0.3159
     17 C          62.3980   85.1906   10.3552 C.3     1  UNL1        0.2333
     18 C          62.0346   86.2142    9.3208 C.2     1  UNL1        0.3644
     19 O          61.7416   85.7868    7.9131 O.2     1  UNL1       -0.2422
     20 N          61.9640   87.6653    9.6941 N.am    1  UNL1        0.0289
     21 N          63.0544   84.5942   12.7973 N.pl3   1  UNL1       -0.1888
     22 C          63.7437   85.0167   14.0608 C.3     1  UNL1        0.2343
     23 C          64.1072   83.9931   15.0952 C.3     1  UNL1        0.1929
     24 O          63.7814   82.5469   14.8660 O.3     1  UNL1       -0.3449
     25 C          63.0922   82.1245   13.6025 C.3     1  UNL1        0.1929
     26 C          62.7287   83.1481   12.5681 C.3     1  UNL1        0.2343
@<TRIPOS>BOND
     1     2     3    1
     2     3     4    1
     3     4     5    1
     4     5     6   am
     5     6     7    2
     6     6     1    1
     7     1    14    1
     8    14    15    1
     9    15    16    2
    10    16    21    1
    11    21    22    1
    12    22    23    1
    13    23    24    1
    14    24    25    1
    15    25    26    1
    16    16    17    1
    17    17    18    1
    18    18    19    2
    19    18    20    1
    20     5     8    1
    21     8     9   ar
    22     9    10   ar
    23    10    11   ar
    24    11    12   ar
    25    12    13   ar
    26    13     3    1
    27    20    14    2
    28    13     8   ar
    29    26    21    1
@<TRIPOS>MOLECULE
*****
 26 29 0 0 0
SMALL
GASTEIGER

@<TRIPOS>ATOM
      1 C          61.7918   89.3348   10.9527 C.3     1  UNL1        0.2068
      2 C          63.4054   89.7704   16.4872 C.3     1  UNL1        0.0065
      3 C          63.6146   90.2218   15.0721 C.3     1  UNL1        0.0438
      4 C          62.8470   89.7491   13.8733 C.3     1  UNL1        0.1025
      5 N          63.3862   90.4604   12.6677 N.am    1  UNL1       -0.2581
      6 C          62.9085   90.2894   11.2561 C.2     1  UNL1        0.2419
      7 O          63.5473   91.0728   10.1480 O.2     1  UNL1       -0.2739
      8 C          64.4870   91.3727   13.1215 C.ar    1  UNL1        0.0499
      9 C          65.3790   92.3186   12.3736 C.ar    1  UNL1        0.0146
     10 C          66.4122   93.1171   13.1117 C.ar    1  UNL1        0.0013
     11 C          66.5534   92.9697   14.5977 C.ar    1  UNL1       -0.0002
     12 C          65.6613   92.0238   15.3457 C.ar    1  UNL1       -0.0030
     13 C          64.6282   91.2253   14.6076 C.ar    1  UNL1       -0.0071
     14 C          62.0884   87.8826   10.7220 C.2     1  UNL1        0.3580
     15 N          62.4192   86.9913   11.8821 N.2     1  UNL1       -0.0039
     16 C          62.7157   85.5391   11.6514 C.2     1  UNL1        0.3159
     17 C          62.6815   84.9783   10.2606 C.3     1  UNL1        0.2333
     18 C          62.3507   85.8697    9.1004 C.2     1  UNL1        0.3644
     19 O          62.3164   85.3089    7.7096 O.2     1  UNL1       -0.2422
     20 N          62.0541   87.3219    9.3312 N.am    1  UNL1        0.0289
     21 N          63.0465   84.6476   12.8116 N.pl3   1  UNL1       -0.1888
     22 C          62.6953   83.1901   12.7616 C.3     1  UNL1        0.2343
     23 C          63.0261   82.2987   13.9217 C.3     1  UNL1        0.1929
     24 O          63.7081   82.8647   15.1318 O.3     1  UNL1       -0.3449
     25 C          64.0594   84.3221   15.1818 C.3     1  UNL1        0.1929
     26 C          63.7286   85.2136   14.0218 C.3     1  UNL1        0.2343
@<TRIPOS>BOND
     1     2     3    1
     2     3     4    1
     3     4     5    1
     4     5     6   am
     5     6     7    2
     6     6     1    1
     7     1    14    1
     8    14    15    1
     9    15    16    2
    10    16    21    1
    11    21    22    1
    12    22    23    1
    13    23    24    1
    14    24    25    1
    15    25    26    1
    16    16    17    1
    17    17    18    1
    18    18    19    2
    19    18    20    1
    20     5     8    1
    21     8     9   ar
    22     9    10   ar
    23    10    11   ar
    24    11    12   ar
    25    12    13   ar
    26    13     3    1
    27    20    14    2
    28    13     8   ar
    29    26    21    1
@<TRIPOS>MOLECULE
*****
 26 29 0 0 0
SMALL
GASTEIGER

@<TRIPOS>ATOM
      1 C          61.1157   90.2113   10.7624 C.3     1  UNL1        0.2068
      2 C          63.5053   89.5595   15.9864 C.3     1  UNL1        0.0065
      3 C          63.6276   90.1306   14.6047 C.3     1  UNL1        0.0438
      4 C          62.6170   89.9999   13.5040 C.3     1  UNL1        0.1025
      5 N          63.1468   90.7212   12.3003 N.am    1  UNL1       -0.2581
      6 C          62.4593   90.8444   10.9728 C.2     1  UNL1        0.2419
      7 O          63.1151   91.6006    9.8558 O.2     1  UNL1       -0.2739
      8 C          64.4848   91.2978   12.6570 C.ar    1  UNL1        0.0499
      9 C          65.4710   92.1079   11.8690 C.ar    1  UNL1        0.0146
     10 C          66.7543   92.5531   12.5052 C.ar    1  UNL1        0.0013
     11 C          67.0515   92.1881   13.9295 C.ar    1  UNL1       -0.0002
     12 C          66.0653   91.3779   14.7175 C.ar    1  UNL1       -0.0030
     13 C          64.7820   90.9327   14.0813 C.ar    1  UNL1       -0.0071
     14 C          61.0197   88.8281   10.1901 C.2     1  UNL1        0.3580
     15 N          61.8835   87.7295   10.7349 N.2     1  UNL1       -0.0039
     16 C          61.7875   86.3463   10.1625 C.2     1  UNL1        0.3159
     17 C          60.8278   86.0618    9.0454 C.3     1  UNL1        0.2333
     18 C          59.9641   87.1605    8.5005 C.2     1  UNL1        0.3644
     19 O          59.0043   86.8760    7.3834 O.2     1  UNL1       -0.2422
     20 N          60.0600   88.5436    9.0729 N.am    1  UNL1        0.0289
     21 N          62.6513   85.2476   10.7073 N.pl3   1  UNL1       -0.1888
     22 C          62.8170   85.0889   12.1897 C.3     1  UNL1        0.2343
     23 C          63.6807   83.9902   12.7345 C.3     1  UNL1        0.1929
     24 O          64.3788   83.0502   11.7969 O.3     1  UNL1       -0.3449
     25 C          64.2131   83.2089   10.3146 C.3     1  UNL1        0.1929
     26 C          63.3494   84.3075    9.7697 C.3     1  UNL1        0.2343
@<TRIPOS>BOND
     1     2     3    1
     2     3     4    1
     3     4     5    1
     4     5     6   am
     5     6     7    2
     6     6     1    1
     7     1    14    1
     8    14    15    1
     9    15    16    2
    10    16    21    1
    11    21    22    1
    12    22    23    1
    13    23    24    1
    14    24    25    1
    15    25    26    1
    16    16    17    1
    17    17    18    1
    18    18    19    2
    19    18    20    1
    20     5     8    1
    21     8     9   ar
    22     9    10   ar
    23    10    11   ar
    24    11    12   ar
    25    12    13   ar
    26    13     3    1
    27    20    14    2
    28    13     8   ar
    29    26    21    1
@<TRIPOS>MOLECULE
*****
 26 29 0 0 0
SMALL
GASTEIGER

@<TRIPOS>ATOM
      1 C          64.3709   86.5374   14.3517 C.3     1  UNL1        0.2068
      2 C          64.7177   82.5329   10.1962 C.3     1  UNL1        0.0065
      3 C          64.1411   82.9281   11.5233 C.3     1  UNL1        0.0438
      4 C          64.3940   84.2182   12.2455 C.3     1  UNL1        0.1025
      5 N          63.6195   84.1900   13.5297 N.am    1  UNL1       -0.2581
      6 C          63.5830   85.2782   14.5614 C.2     1  UNL1        0.2419
      7 O          62.7586   85.1075   15.8028 O.2     1  UNL1       -0.2739
      8 C          62.8878   82.8825   13.6012 C.ar    1  UNL1        0.0499
      9 C          61.9697   82.3013   14.6353 C.ar    1  UNL1        0.0146
     10 C          61.3740   80.9402   14.4292 C.ar    1  UNL1        0.0013
     11 C          61.6964   80.1603   13.1891 C.ar    1  UNL1       -0.0002
     12 C          62.6145   80.7415   12.1551 C.ar    1  UNL1       -0.0030
     13 C          63.2102   82.1026   12.3611 C.ar    1  UNL1       -0.0071
     14 C          63.8035   87.6469   13.5168 C.2     1  UNL1        0.3580
     15 N          62.9366   87.3281   12.3350 N.2     1  UNL1       -0.0039
     16 C          62.3691   88.4377   11.5002 C.2     1  UNL1        0.3159
     17 C          62.6686   89.8659   11.8472 C.3     1  UNL1        0.2333
     18 C          63.5355   90.1847   13.0291 C.2     1  UNL1        0.3644
     19 O          63.8350   91.6129   13.3762 O.2     1  UNL1       -0.2422
     20 N          64.1029   89.0751   13.8639 N.am    1  UNL1        0.0289
     21 N          61.5021   88.1190   10.3182 N.pl3   1  UNL1       -0.1888
     22 C          60.8371   89.2263    9.5556 C.3     1  UNL1        0.2343
     23 C          59.9701   88.9076    8.3737 C.3     1  UNL1        0.1929
     24 O          59.7683   87.4816    7.9545 O.3     1  UNL1       -0.3449
     25 C          60.4333   86.3744    8.7171 C.3     1  UNL1        0.1929
     26 C          61.3002   86.6930    9.8990 C.3     1  UNL1        0.2343
@<TRIPOS>BOND
     1     2     3    1
     2     3     4    1
     3     4     5    1
     4     5     6   am
     5     6     7    2
     6     6     1    1
     7     1    14    1
     8    14    15    1
     9    15    16    2
    10    16    21    1
    11    21    22    1
    12    22    23    1
    13    23    24    1
    14    24    25    1
    15    25    26    1
    16    16    17    1
    17    17    18    1
    18    18    19    2
    19    18    20    1
    20     5     8    1
    21     8     9   ar
    22     9    10   ar
    23    10    11   ar
    24    11    12   ar
    25    12    13   ar
    26    13     3    1
    27    20    14    2
    28    13     8   ar
    29    26    21    1
@<TRIPOS>MOLECULE
*****
 26 29 0 0 0
SMALL
GASTEIGER

@<TRIPOS>ATOM
      1 C          62.5734   89.8649   12.4066 C.3     1  UNL1        0.2068
      2 C          66.9405   93.2849   10.7767 C.3     1  UNL1        0.0065
      3 C          66.1979   92.6389   11.9086 C.3     1  UNL1        0.0438
      4 C          65.0005   91.7445   11.7808 C.3     1  UNL1        0.1025
      5 N          64.5848   91.3267   13.1602 N.am    1  UNL1       -0.2581
      6 C          63.4312   90.4302   13.4998 C.2     1  UNL1        0.2419
      7 O          63.1352   90.0987   14.9324 O.2     1  UNL1       -0.2739
      8 C          65.5253   91.9629   14.1404 C.ar    1  UNL1        0.0499
      9 C          65.6026   91.9085   15.6374 C.ar    1  UNL1        0.0146
     10 C          66.6769   92.6651   16.3608 C.ar    1  UNL1        0.0013
     11 C          67.6739   93.4761   15.5872 C.ar    1  UNL1       -0.0002
     12 C          67.5965   93.5305   14.0903 C.ar    1  UNL1       -0.0030
     13 C          66.5222   92.7739   13.3668 C.ar    1  UNL1       -0.0071
     14 C          62.6672   88.4094   12.0564 C.2     1  UNL1        0.3580
     15 N          62.1716   87.9246   10.7263 N.2     1  UNL1       -0.0039
     16 C          62.2654   86.4691   10.3761 C.2     1  UNL1        0.3159
     17 C          62.8548   85.4984   11.3561 C.3     1  UNL1        0.2333
     18 C          63.3504   85.9831   12.6863 C.2     1  UNL1        0.3644
     19 O          63.9398   85.0125   13.6662 O.2     1  UNL1       -0.2422
     20 N          63.2566   87.4387   13.0364 N.am    1  UNL1        0.0289
     21 N          61.7698   85.9842    9.0459 N.pl3   1  UNL1       -0.1888
     22 C          62.6802   85.2025    8.1459 C.3     1  UNL1        0.2343
     23 C          62.1846   84.7176    6.8158 C.3     1  UNL1        0.1929
     24 O          60.7786   85.0145    6.3856 O.3     1  UNL1       -0.3449
     25 C          59.8683   85.7963    7.2857 C.3     1  UNL1        0.1929
     26 C          60.3638   86.2812    8.6158 C.3     1  UNL1        0.2343
@<TRIPOS>BOND
     1     2     3    1
     2     3     4    1
     3     4     5    1
     4     5     6   am
     5     6     7    2
     6     6     1    1
     7     1    14    1
     8    14    15    1
     9    15    16    2
    10    16    21    1
    11    21    22    1
    12    22    23    1
    13    23    24    1
    14    24    25    1
    15    25    26    1
    16    16    17    1
    17    17    18    1
    18    18    19    2
    19    18    20    1
    20     5     8    1
    21     8     9   ar
    22     9    10   ar
    23    10    11   ar
    24    11    12   ar
    25    12    13   ar
    26    13     3    1
    27    20    14    2
    28    13     8   ar
    29    26    21    1
@<TRIPOS>MOLECULE
*****
 26 29 0 0 0
SMALL
GASTEIGER

@<TRIPOS>ATOM
      1 C          62.4900   90.3599   11.1614 C.3     1  UNL1        0.2068
      2 C          63.5236   90.3186   16.8495 C.3     1  UNL1        0.0065
      3 C          63.9532   90.7902   15.4919 C.3     1  UNL1        0.0438
      4 C          63.2628   90.4892   14.1947 C.3     1  UNL1        0.1025
      5 N          64.0316   91.1585   13.0943 N.am    1  UNL1       -0.2581
      6 C          63.6941   91.1199   11.6332 C.2     1  UNL1        0.2419
      7 O          64.5605   91.8414   10.6440 O.2     1  UNL1       -0.2739
      8 C          65.1971   91.8732   13.7113 C.ar    1  UNL1        0.0499
      9 C          66.2963   92.7018   13.1153 C.ar    1  UNL1        0.0146
     10 C          67.3470   93.3028   14.0012 C.ar    1  UNL1        0.0013
     11 C          67.2985   93.0751   15.4830 C.ar    1  UNL1       -0.0002
     12 C          66.1994   92.2465   16.0790 C.ar    1  UNL1       -0.0030
     13 C          65.1487   91.6455   15.1932 C.ar    1  UNL1       -0.0071
     14 C          62.5206   88.8609   11.1136 C.2     1  UNL1        0.3580
     15 N          62.1421   88.1430    9.8521 N.2     1  UNL1       -0.0039
     16 C          62.1727   86.6441    9.8043 C.2     1  UNL1        0.3159
     17 C          62.5817   85.8632   11.0180 C.3     1  UNL1        0.2333
     18 C          62.9601   86.5811   12.2794 C.2     1  UNL1        0.3644
     19 O          63.3691   85.8002   13.4931 O.2     1  UNL1       -0.2422
     20 N          62.9295   88.0800   12.3272 N.am    1  UNL1        0.0289
     21 N          61.7943   85.9260    8.5428 N.pl3   1  UNL1       -0.1888
     22 C          62.8176   85.1127    7.8070 C.3     1  UNL1        0.2343
     23 C          62.4393   84.3947    6.5455 C.3     1  UNL1        0.1929
     24 O          61.0376   84.4900    6.0200 O.3     1  UNL1       -0.3449
     25 C          60.0143   85.3032    6.7558 C.3     1  UNL1        0.1929
     26 C          60.3926   86.0212    8.0173 C.3     1  UNL1        0.2343
@<TRIPOS>BOND
     1     2     3    1
     2     3     4    1
     3     4     5    1
     4     5     6   am
     5     6     7    2
     6     6     1    1
     7     1    14    1
     8    14    15    1
     9    15    16    2
    10    16    21    1
    11    21    22    1
    12    22    23    1
    13    23    24    1
    14    24    25    1
    15    25    26    1
    16    16    17    1
    17    17    18    1
    18    18    19    2
    19    18    20    1
    20     5     8    1
    21     8     9   ar
    22     9    10   ar
    23    10    11   ar
    24    11    12   ar
    25    12    13   ar
    26    13     3    1
    27    20    14    2
    28    13     8   ar
    29    26    21    1
@<TRIPOS>MOLECULE
*****
 26 29 0 0 0
SMALL
GASTEIGER

@<TRIPOS>ATOM
      1 C          62.9305   91.4978   10.1406 C.3     1  UNL1        0.2068
      2 C          63.3127   89.8867   15.6798 C.3     1  UNL1        0.0065
      3 C          63.9784   90.5451   14.5080 C.3     1  UNL1        0.0438
      4 C          63.3823   90.7284   13.1438 C.3     1  UNL1        0.1025
      5 N          64.3927   91.4323   12.2873 N.am    1  UNL1       -0.2581
      6 C          64.2140   91.8170   10.8485 C.2     1  UNL1        0.2419
      7 O          65.3185   92.5208   10.1175 O.2     1  UNL1       -0.2739
      8 C          65.6132   91.6841   13.1221 C.ar    1  UNL1        0.0499
      9 C          66.9246   92.3418   12.8098 C.ar    1  UNL1        0.0146
     10 C          67.9800   92.4512   13.8701 C.ar    1  UNL1        0.0013
     11 C          67.7240   91.9028   15.2426 C.ar    1  UNL1       -0.0002
     12 C          66.4126   91.2451   15.5548 C.ar    1  UNL1       -0.0030
     13 C          65.3572   91.1357   14.4946 C.ar    1  UNL1       -0.0071
     14 C          62.1342   90.2907   10.5394 C.2     1  UNL1        0.3580
     15 N          62.6583   88.9162   10.2462 N.2     1  UNL1       -0.0039
     16 C          61.8621   87.7092   10.6449 C.2     1  UNL1        0.3159
     17 C          60.5418   87.8767   11.3368 C.3     1  UNL1        0.2333
     18 C          60.0176   89.2512   11.6300 C.2     1  UNL1        0.3644
     19 O          58.6973   89.4187   12.3219 O.2     1  UNL1       -0.2422
     20 N          60.8139   90.4582   11.2313 N.am    1  UNL1        0.0289
     21 N          62.3862   86.3346   10.3517 N.pl3   1  UNL1       -0.1888
     22 C          62.7130   85.9415    8.9416 C.3     1  UNL1        0.2343
     23 C          63.2371   84.5670    8.6483 C.3     1  UNL1        0.1929
     24 O          63.4343   83.5855    9.7654 O.3     1  UNL1       -0.3449
     25 C          63.1074   83.9785   11.1756 C.3     1  UNL1        0.1929
     26 C          62.5833   85.3531   11.4688 C.3     1  UNL1        0.2343
@<TRIPOS>BOND
     1     2     3    1
     2     3     4    1
     3     4     5    1
     4     5     6   am
     5     6     7    2
     6     6     1    1
     7     1    14    1
     8    14    15    1
     9    15    16    2
    10    16    21    1
    11    21    22    1
    12    22    23    1
    13    23    24    1
    14    24    25    1
    15    25    26    1
    16    16    17    1
    17    17    18    1
    18    18    19    2
    19    18    20    1
    20     5     8    1
    21     8     9   ar
    22     9    10   ar
    23    10    11   ar
    24    11    12   ar
    25    12    13   ar
    26    13     3    1
    27    20    14    2
    28    13     8   ar
    29    26    21    1
@<TRIPOS>MOLECULE
*****
 26 29 0 0 0
SMALL
GASTEIGER

@<TRIPOS>ATOM
      1 C          63.6949   84.4667   14.0212 C.3     1  UNL1        0.2068
      2 C          59.9269   87.8760   11.2637 C.3     1  UNL1        0.0065
      3 C          60.9988   86.8323   11.1551 C.3     1  UNL1        0.0438
      4 C          61.7421   86.2094   12.2995 C.3     1  UNL1        0.1025
      5 N          62.7183   85.2205   11.7346 N.am    1  UNL1       -0.2581
      6 C          63.6677   84.3692   12.5245 C.2     1  UNL1        0.2419
      7 O          64.5900   83.4206   11.8180 O.2     1  UNL1       -0.2739
      8 C          62.5783   85.2321   10.2412 C.ar    1  UNL1        0.0499
      9 C          63.2812   84.4644    9.1612 C.ar    1  UNL1        0.0146
     10 C          62.9215   84.6928    7.7231 C.ar    1  UNL1        0.0013
     11 C          61.8588   85.6890    7.3649 C.ar    1  UNL1       -0.0002
     12 C          61.1559   86.4568    8.4449 C.ar    1  UNL1       -0.0030
     13 C          61.5156   86.2283    9.8830 C.ar    1  UNL1       -0.0071
     14 C          63.6351   85.8097   14.6865 C.2     1  UNL1        0.3580
     15 N          63.9569   87.0488   13.9049 N.2     1  UNL1       -0.0039
     16 C          63.8971   88.3919   14.5702 C.2     1  UNL1        0.3159
     17 C          63.5155   88.4958   16.0171 C.3     1  UNL1        0.2333
     18 C          63.1937   87.2567   16.7988 C.2     1  UNL1        0.3644
     19 O          62.8121   87.3606   18.2457 O.2     1  UNL1       -0.2422
     20 N          63.2535   85.9136   16.1335 N.am    1  UNL1        0.0289
     21 N          64.2189   89.6311   13.7886 N.pl3   1  UNL1       -0.1888
     22 C          65.2548   90.5900   14.2960 C.3     1  UNL1        0.2343
     23 C          65.5766   91.8292   13.5144 C.3     1  UNL1        0.1929
     24 O          64.8625   92.1094   12.2254 O.3     1  UNL1       -0.3449
     25 C          63.8267   91.1505   11.7180 C.3     1  UNL1        0.1929
     26 C          63.5048   89.9114   12.4995 C.3     1  UNL1        0.2343
@<TRIPOS>BOND
     1     2     3    1
     2     3     4    1
     3     4     5    1
     4     5     6   am
     5     6     7    2
     6     6     1    1
     7     1    14    1
     8    14    15    1
     9    15    16    2
    10    16    21    1
    11    21    22    1
    12    22    23    1
    13    23    24    1
    14    24    25    1
    15    25    26    1
    16    16    17    1
    17    17    18    1
    18    18    19    2
    19    18    20    1
    20     5     8    1
    21     8     9   ar
    22     9    10   ar
    23    10    11   ar
    24    11    12   ar
    25    12    13   ar
    26    13     3    1
    27    20    14    2
    28    13     8   ar
    29    26    21    1
