@<TRIPOS>MOLECULE
*****
 30 33 0 0 0
SMALL
GASTEIGER

@<TRIPOS>ATOM
      1 N          63.2402   84.6051   15.0788 N.ar    1  UNL1       -0.1813
      2 N          63.0868   84.6102   16.5709 N.ar    1  UNL1       -0.0576
      3 N          63.1417   86.0347   17.0376 N.ar    1  UNL1       -0.1315
      4 C          63.3290   86.9100   15.8340 C.ar    1  UNL1        0.1138
      5 C          63.3899   86.0264   14.6233 C.ar    1  UNL1        0.0837
      6 C          63.5738   86.6303   13.2626 C.3     1  UNL1        0.0688
      7 C          63.6969   88.1177   13.1125 C.3     1  UNL1        0.1004
      8 N          63.6360   89.0012   14.3232 N.am    1  UNL1       -0.2719
      9 C          63.7590   90.4886   14.1731 C.2     1  UNL1        0.2501
     10 O          63.6981   91.3721   15.3838 O.2     1  UNL1       -0.2699
     11 C          63.4520   88.3973   15.6839 C.3     1  UNL1        0.1189
     12 C          63.3911   89.2808   16.8946 C.3     1  UNL1        0.0282
     13 C          64.1441   82.4005   10.4612 C.3     1  UNL1        0.0523
     14 C          63.6953   82.2894   11.8881 C.ar    1  UNL1        0.0640
     15 C          63.2496   80.9649   12.4332 C.ar    1  UNL1        0.0355
     16 C          62.8008   80.8538   13.8602 C.ar    1  UNL1        0.1033
     17 N          62.7977   82.0672   14.7420 N.ar    1  UNL1       -0.2084
     18 C          63.2434   83.3917   14.1969 C.ar    1  UNL1        0.2538
     19 N          63.6922   83.5028   12.7700 N.ar    1  UNL1       -0.2143
     20 C          63.9429   91.0924   12.8125 C.ar    1  UNL1        0.0641
     21 C          62.9635   90.7876   11.7180 C.ar    1  UNL1        0.0054
     22 C          63.1474   91.3915   10.3573 C.ar    1  UNL1        0.0001
     23 C          64.3108   92.3002   10.0910 C.ar    1  UNL1        0.0047
     24 C          65.2902   92.6050   11.1855 C.ar    1  UNL1        0.0821
     25 C          65.1063   92.0011   12.5461 C.ar    1  UNL1        0.0659
     26 CL         66.0857   92.3060   13.6406 Cl      1  UNL1       -0.0822
     27 C          66.4536   93.5137   10.9191 C.3     1  UNL1        0.4194
     28 F          67.6169   94.4223   10.6528 F       1  UNL1       -0.1658
     29 F          65.6268   94.6941   11.3348 F       1  UNL1       -0.1658
     30 F          67.2804   92.3332   10.5035 F       1  UNL1       -0.1658
@<TRIPOS>BOND
     1    13    14    1
     2    14    15   ar
     3    15    16   ar
     4    16    17   ar
     5    17    18   ar
     6    18     1    1
     7     1     2   ar
     8     2     3   ar
     9     3     4   ar
    10     4     5   ar
    11     5     6    1
    12     6     7    1
    13     7     8    1
    14     8     9   am
    15     9    10    2
    16     9    20    1
    17    20    21   ar
    18    21    22   ar
    19    22    23   ar
    20    23    24   ar
    21    24    27    1
    22    27    28    1
    23    27    29    1
    24    27    30    1
    25    24    25   ar
    26    25    26    1
    27     8    11    1
    28    11    12    1
    29    18    19   ar
    30    19    14   ar
    31     5     1   ar
    32    25    20   ar
    33    11     4    1
@<TRIPOS>MOLECULE
*****
 30 33 0 0 0
SMALL
GASTEIGER

@<TRIPOS>ATOM
      1 N          62.4394   85.3348   11.7457 N.ar    1  UNL1       -0.1813
      2 N          61.8345   85.4969   10.3827 N.ar    1  UNL1       -0.0576
      3 N          61.9151   86.9475   10.0094 N.ar    1  UNL1       -0.1315
      4 C          62.5697   87.6819   11.1418 C.ar    1  UNL1        0.1138
      5 C          62.8937   86.6852   12.2149 C.ar    1  UNL1        0.0837
      6 C          63.5606   87.1360   13.4805 C.3     1  UNL1        0.0688
      7 C          63.9035   88.5836   13.6732 C.3     1  UNL1        0.1004
      8 N          63.5795   89.5803   12.6001 N.am    1  UNL1       -0.2719
      9 C          63.9223   91.0278   12.7926 C.2     1  UNL1        0.2501
     10 O          63.5983   92.0245   11.7195 O.2     1  UNL1       -0.2699
     11 C          62.9125   89.1294   11.3343 C.3     1  UNL1        0.1189
     12 C          62.5885   90.1261   10.2612 C.3     1  UNL1        0.0282
     13 C          62.8345   80.1539   11.7901 C.3     1  UNL1        0.0523
     14 C          62.7650   81.4578   12.5284 C.ar    1  UNL1        0.0640
     15 C          62.8235   81.4750   14.0271 C.ar    1  UNL1        0.0355
     16 C          62.7540   82.7789   14.7654 C.ar    1  UNL1        0.1033
     17 N          62.6259   84.0655   14.0049 N.ar    1  UNL1       -0.2084
     18 C          62.5674   84.0482   12.5061 C.ar    1  UNL1        0.2538
     19 N          62.6369   82.7444   11.7678 N.ar    1  UNL1       -0.2143
     20 C          64.5892   91.4786   14.0583 C.ar    1  UNL1        0.0641
     21 C          63.8618   91.3781   15.3662 C.ar    1  UNL1        0.0054
     22 C          64.5288   91.8289   16.6320 C.ar    1  UNL1        0.0001
     23 C          65.9231   92.3802   16.5897 C.ar    1  UNL1        0.0047
     24 C          66.6506   92.4807   15.2818 C.ar    1  UNL1        0.0821
     25 C          65.9837   92.0299   14.0161 C.ar    1  UNL1        0.0659
     26 CL         66.7111   92.1304   12.7081 Cl      1  UNL1       -0.0822
     27 C          68.0450   93.0320   15.2395 C.3     1  UNL1        0.4194
     28 F          69.4393   93.5833   15.1973 F       1  UNL1       -0.1658
     29 F          68.5860   91.6955   15.6530 F       1  UNL1       -0.1658
     30 F          67.5040   94.3685   14.8261 F       1  UNL1       -0.1658
@<TRIPOS>BOND
     1    13    14    1
     2    14    15   ar
     3    15    16   ar
     4    16    17   ar
     5    17    18   ar
     6    18     1    1
     7     1     2   ar
     8     2     3   ar
     9     3     4   ar
    10     4     5   ar
    11     5     6    1
    12     6     7    1
    13     7     8    1
    14     8     9   am
    15     9    10    2
    16     9    20    1
    17    20    21   ar
    18    21    22   ar
    19    22    23   ar
    20    23    24   ar
    21    24    27    1
    22    27    28    1
    23    27    29    1
    24    27    30    1
    25    24    25   ar
    26    25    26    1
    27     8    11    1
    28    11    12    1
    29    18    19   ar
    30    19    14   ar
    31     5     1   ar
    32    25    20   ar
    33    11     4    1
@<TRIPOS>MOLECULE
*****
 30 33 0 0 0
SMALL
GASTEIGER

@<TRIPOS>ATOM
      1 N          64.4473   91.0698   13.0799 N.ar    1  UNL1       -0.1813
      2 N          63.9461   91.8189   11.8809 N.ar    1  UNL1       -0.0576
      3 N          63.1742   90.8595   11.0243 N.ar    1  UNL1       -0.1315
      4 C          63.1984   89.5174   11.6939 C.ar    1  UNL1        0.1138
      5 C          63.9852   89.6474   12.9644 C.ar    1  UNL1        0.0837
      6 C          64.1792   88.4538   13.8519 C.3     1  UNL1        0.0688
      7 C          63.5864   87.1302   13.4689 C.3     1  UNL1        0.1004
      8 N          62.7996   87.0002   12.1985 N.am    1  UNL1       -0.2719
      9 C          62.2068   85.6766   11.8155 C.2     1  UNL1        0.2501
     10 O          61.4200   85.5466   10.5451 O.2     1  UNL1       -0.2699
     11 C          62.6056   88.1938   11.3110 C.3     1  UNL1        0.1189
     12 C          61.8188   88.0639   10.0405 C.3     1  UNL1        0.0282
     13 C          69.0256   92.6792   14.9370 C.3     1  UNL1        0.0523
     14 C          67.5558   92.4472   15.1268 C.ar    1  UNL1        0.0640
     15 C          66.9056   92.7879   16.4348 C.ar    1  UNL1        0.0355
     16 C          65.4358   92.5559   16.6246 C.ar    1  UNL1        0.1033
     17 N          64.6164   91.9832   15.5062 N.ar    1  UNL1       -0.2084
     18 C          65.2667   91.6425   14.1982 C.ar    1  UNL1        0.2538
     19 N          66.7365   91.8745   14.0084 N.ar    1  UNL1       -0.2143
     20 C          62.4008   84.4830   12.7030 C.ar    1  UNL1        0.0641
     21 C          62.5131   84.6629   14.1879 C.ar    1  UNL1        0.0054
     22 C          62.7071   83.4692   15.0754 C.ar    1  UNL1        0.0001
     23 C          62.7889   82.0958   14.4780 C.ar    1  UNL1        0.0047
     24 C          62.6766   81.9159   12.9930 C.ar    1  UNL1        0.0821
     25 C          62.4826   83.1095   12.1055 C.ar    1  UNL1        0.0659
     26 CL         62.3704   82.9297   10.6206 Cl      1  UNL1       -0.0822
     27 C          62.7584   80.5424   12.3956 C.3     1  UNL1        0.4194
     28 F          62.8402   79.1690   11.7981 F       1  UNL1       -0.1658
     29 F          61.6377   80.0893   13.2837 F       1  UNL1       -0.1658
     30 F          63.8791   80.9955   11.5075 F       1  UNL1       -0.1658
@<TRIPOS>BOND
     1    13    14    1
     2    14    15   ar
     3    15    16   ar
     4    16    17   ar
     5    17    18   ar
     6    18     1    1
     7     1     2   ar
     8     2     3   ar
     9     3     4   ar
    10     4     5   ar
    11     5     6    1
    12     6     7    1
    13     7     8    1
    14     8     9   am
    15     9    10    2
    16     9    20    1
    17    20    21   ar
    18    21    22   ar
    19    22    23   ar
    20    23    24   ar
    21    24    27    1
    22    27    28    1
    23    27    29    1
    24    27    30    1
    25    24    25   ar
    26    25    26    1
    27     8    11    1
    28    11    12    1
    29    18    19   ar
    30    19    14   ar
    31     5     1   ar
    32    25    20   ar
    33    11     4    1
@<TRIPOS>MOLECULE
*****
 30 33 0 0 0
SMALL
GASTEIGER

@<TRIPOS>ATOM
      1 N          62.3072   88.6352   11.2305 N.ar    1  UNL1       -0.1813
      2 N          62.4584   87.7555   12.4360 N.ar    1  UNL1       -0.0576
      3 N          63.4137   88.4233   13.3801 N.ar    1  UNL1       -0.1315
      4 C          63.8529   89.7157   12.7582 C.ar    1  UNL1        0.1138
      5 C          63.1690   89.8467   11.4296 C.ar    1  UNL1        0.0837
      6 C          63.4194   91.0521   10.5727 C.3     1  UNL1        0.0688
      7 C          64.3536   92.1267   11.0445 C.3     1  UNL1        0.1004
      8 N          65.0375   91.9957   12.3731 N.am    1  UNL1       -0.2719
      9 C          65.9717   93.0702   12.8448 C.2     1  UNL1        0.2501
     10 O          66.6556   92.9393   14.1734 O.2     1  UNL1       -0.2699
     11 C          64.7871   90.7902   13.2299 C.3     1  UNL1        0.1189
     12 C          65.4710   90.6593   14.5585 C.3     1  UNL1        0.0282
     13 C          60.7414   85.4051    7.4735 C.3     1  UNL1        0.0523
     14 C          60.6625   86.7380    8.1571 C.ar    1  UNL1        0.0640
     15 C          59.7219   87.7885    7.6458 C.ar    1  UNL1        0.0355
     16 C          59.6430   89.1214    8.3294 C.ar    1  UNL1        0.1033
     17 N          60.5048   89.4035    9.5243 N.ar    1  UNL1       -0.2084
     18 C          61.4454   88.3529   10.0356 C.ar    1  UNL1        0.2538
     19 N          61.5243   87.0201    9.3520 N.ar    1  UNL1       -0.2143
     20 C          66.2221   94.2757   11.9880 C.ar    1  UNL1        0.0641
     21 C          65.9773   95.6500   12.5369 C.ar    1  UNL1        0.0054
     22 C          66.2276   96.8554   11.6800 C.ar    1  UNL1        0.0001
     23 C          66.7228   96.6866   10.2742 C.ar    1  UNL1        0.0047
     24 C          66.9677   95.3122    9.7253 C.ar    1  UNL1        0.0821
     25 C          66.7173   94.1068   10.5821 C.ar    1  UNL1        0.0659
     26 CL         66.9622   92.7325   10.0332 Cl      1  UNL1       -0.0822
     27 C          67.4629   95.1434    8.3195 C.3     1  UNL1        0.4194
     28 F          67.9581   94.9745    6.9137 F       1  UNL1       -0.1658
     29 F          66.2336   95.8310    7.8038 F       1  UNL1       -0.1658
     30 F          68.6922   94.4558    8.8351 F       1  UNL1       -0.1658
@<TRIPOS>BOND
     1    13    14    1
     2    14    15   ar
     3    15    16   ar
     4    16    17   ar
     5    17    18   ar
     6    18     1    1
     7     1     2   ar
     8     2     3   ar
     9     3     4   ar
    10     4     5   ar
    11     5     6    1
    12     6     7    1
    13     7     8    1
    14     8     9   am
    15     9    10    2
    16     9    20    1
    17    20    21   ar
    18    21    22   ar
    19    22    23   ar
    20    23    24   ar
    21    24    27    1
    22    27    28    1
    23    27    29    1
    24    27    30    1
    25    24    25   ar
    26    25    26    1
    27     8    11    1
    28    11    12    1
    29    18    19   ar
    30    19    14   ar
    31     5     1   ar
    32    25    20   ar
    33    11     4    1
@<TRIPOS>MOLECULE
*****
 30 33 0 0 0
SMALL
GASTEIGER

@<TRIPOS>ATOM
      1 N          63.8846   91.3318   11.3435 N.ar    1  UNL1       -0.1813
      2 N          63.1453   91.6665   10.0820 N.ar    1  UNL1       -0.0576
      3 N          62.4010   90.4409    9.6419 N.ar    1  UNL1       -0.1315
      4 C          62.6801   89.3486   10.6314 C.ar    1  UNL1        0.1138
      5 C          63.5971   89.8993   11.6831 C.ar    1  UNL1        0.0837
      6 C          64.0517   89.0251   12.8140 C.3     1  UNL1        0.0688
      7 C          63.5895   87.6003   12.8933 C.3     1  UNL1        0.1004
      8 N          62.6726   87.0497   11.8417 N.am    1  UNL1       -0.2719
      9 C          62.2103   85.6249   11.9209 C.2     1  UNL1        0.2501
     10 O          61.2934   85.0743   10.8692 O.2     1  UNL1       -0.2699
     11 C          62.2179   87.9239   10.7106 C.3     1  UNL1        0.1189
     12 C          61.3010   87.3732    9.6590 C.3     1  UNL1        0.0282
     13 C          66.6521   95.7193   11.6441 C.3     1  UNL1        0.0523
     14 C          66.1418   94.4593   12.2782 C.ar    1  UNL1        0.0640
     15 C          66.5048   94.1332   13.6966 C.ar    1  UNL1        0.0355
     16 C          65.9944   92.8733   14.3306 C.ar    1  UNL1        0.1033
     17 N          65.1210   91.9395   13.5462 N.ar    1  UNL1       -0.2084
     18 C          64.7580   92.2656   12.1278 C.ar    1  UNL1        0.2538
     19 N          65.2683   93.5255   11.4938 N.ar    1  UNL1       -0.2143
     20 C          62.6650   84.7508   13.0519 C.ar    1  UNL1        0.0641
     21 C          63.1633   85.3693   14.3243 C.ar    1  UNL1        0.0054
     22 C          63.6180   84.4950   15.4553 C.ar    1  UNL1        0.0001
     23 C          63.5744   83.0024   15.3138 C.ar    1  UNL1        0.0047
     24 C          63.0761   82.3839   14.0413 C.ar    1  UNL1        0.0821
     25 C          62.6214   83.2580   12.9104 C.ar    1  UNL1        0.0659
     26 CL         62.1232   82.6395   11.6379 Cl      1  UNL1       -0.0822
     27 C          63.0326   80.8912   13.8999 C.3     1  UNL1        0.4194
     28 F          62.9890   79.3985   13.7584 F       1  UNL1       -0.1658
     29 F          64.4500   80.8963   13.4091 F       1  UNL1       -0.1658
     30 F          61.6152   80.8861   14.3907 F       1  UNL1       -0.1658
@<TRIPOS>BOND
     1    13    14    1
     2    14    15   ar
     3    15    16   ar
     4    16    17   ar
     5    17    18   ar
     6    18     1    1
     7     1     2   ar
     8     2     3   ar
     9     3     4   ar
    10     4     5   ar
    11     5     6    1
    12     6     7    1
    13     7     8    1
    14     8     9   am
    15     9    10    2
    16     9    20    1
    17    20    21   ar
    18    21    22   ar
    19    22    23   ar
    20    23    24   ar
    21    24    27    1
    22    27    28    1
    23    27    29    1
    24    27    30    1
    25    24    25   ar
    26    25    26    1
    27     8    11    1
    28    11    12    1
    29    18    19   ar
    30    19    14   ar
    31     5     1   ar
    32    25    20   ar
    33    11     4    1
@<TRIPOS>MOLECULE
*****
 30 33 0 0 0
SMALL
GASTEIGER

@<TRIPOS>ATOM
      1 N          72.2537   76.7822   14.6321 N.ar    1  UNL1       -0.1813
      2 N          72.5345   77.8012   15.6964 N.ar    1  UNL1       -0.0576
      3 N          72.8314   79.1072   15.0209 N.ar    1  UNL1       -0.1315
      4 C          72.7340   78.8954   13.5391 C.ar    1  UNL1        0.1138
      5 C          72.3770   77.4584   13.2988 C.ar    1  UNL1        0.0837
      6 C          72.2103   76.9514   11.8970 C.3     1  UNL1        0.0688
      7 C          72.4006   77.8813   10.7355 C.3     1  UNL1        0.1004
      8 N          72.7577   79.3182   10.9758 N.am    1  UNL1       -0.2719
      9 C          72.9480   80.2481    9.8143 C.2     1  UNL1        0.2501
     10 O          73.3051   81.6850   10.0547 O.2     1  UNL1       -0.2699
     11 C          72.9244   79.8253   12.3777 C.3     1  UNL1        0.1189
     12 C          73.2815   81.2622   12.6180 C.3     1  UNL1        0.0282
     13 C          72.0277   72.6545   17.7802 C.3     1  UNL1        0.0523
     14 C          71.7968   73.2763   16.4348 C.ar    1  UNL1        0.0640
     15 C          71.2222   72.4561   15.3182 C.ar    1  UNL1        0.0355
     16 C          70.9913   73.0779   13.9728 C.ar    1  UNL1        0.1033
     17 N          71.3352   74.5200   13.7441 N.ar    1  UNL1       -0.2084
     18 C          71.9098   75.3402   14.8608 C.ar    1  UNL1        0.2538
     19 N          72.1407   74.7184   16.2062 N.ar    1  UNL1       -0.2143
     20 C          72.7813   79.7411    8.4125 C.ar    1  UNL1        0.0641
     21 C          73.6320   78.6088    7.9184 C.ar    1  UNL1        0.0054
     22 C          73.4653   78.1017    6.5165 C.ar    1  UNL1        0.0001
     23 C          72.4478   78.7270    5.6089 C.ar    1  UNL1        0.0047
     24 C          71.5971   79.8593    6.1030 C.ar    1  UNL1        0.0821
     25 C          71.7638   80.3663    7.5048 C.ar    1  UNL1        0.0659
     26 CL         70.9131   81.4986    7.9990 Cl      1  UNL1       -0.0822
     27 C          70.5797   80.4846    5.1953 C.3     1  UNL1        0.4194
     28 F          69.5622   81.1097    4.2876 F       1  UNL1       -0.1658
     29 F          71.3088   81.7927    5.2791 F       1  UNL1       -0.1658
     30 F          69.8505   79.1764    5.1116 F       1  UNL1       -0.1658
@<TRIPOS>BOND
     1    13    14    1
     2    14    15   ar
     3    15    16   ar
     4    16    17   ar
     5    17    18   ar
     6    18     1    1
     7     1     2   ar
     8     2     3   ar
     9     3     4   ar
    10     4     5   ar
    11     5     6    1
    12     6     7    1
    13     7     8    1
    14     8     9   am
    15     9    10    2
    16     9    20    1
    17    20    21   ar
    18    21    22   ar
    19    22    23   ar
    20    23    24   ar
    21    24    27    1
    22    27    28    1
    23    27    29    1
    24    27    30    1
    25    24    25   ar
    26    25    26    1
    27     8    11    1
    28    11    12    1
    29    18    19   ar
    30    19    14   ar
    31     5     1   ar
    32    25    20   ar
    33    11     4    1
@<TRIPOS>MOLECULE
*****
 30 33 0 0 0
SMALL
GASTEIGER

@<TRIPOS>ATOM
      1 N          63.4994   91.0272   12.9906 N.ar    1  UNL1       -0.1813
      2 N          62.6850   91.9321   12.1144 N.ar    1  UNL1       -0.0576
      3 N          62.0023   91.0856   11.0814 N.ar    1  UNL1       -0.1315
      4 C          62.3948   89.6575   11.3191 C.ar    1  UNL1        0.1138
      5 C          63.3201   89.6214   12.4991 C.ar    1  UNL1        0.0837
      6 C          63.8798   88.3131   12.9736 C.3     1  UNL1        0.0688
      7 C          63.5142   87.0409   12.2680 C.3     1  UNL1        0.1004
      8 N          62.5889   87.0770   11.0880 N.am    1  UNL1       -0.2719
      9 C          62.2232   85.8048   10.3824 C.2     1  UNL1        0.2501
     10 O          61.2979   85.8409    9.2024 O.2     1  UNL1       -0.2699
     11 C          62.0291   88.3853   10.6135 C.3     1  UNL1        0.1189
     12 C          61.1038   88.4214    9.4335 C.3     1  UNL1        0.0282
     13 C          68.1067   92.4591   14.9201 C.3     1  UNL1        0.0523
     14 C          66.6485   92.1692   15.1189 C.ar    1  UNL1        0.0640
     15 C          66.0357   92.3053   16.4813 C.ar    1  UNL1        0.0355
     16 C          64.5775   92.0154   16.6801 C.ar    1  UNL1        0.1033
     17 N          63.7321   91.5893   15.5165 N.ar    1  UNL1       -0.2084
     18 C          64.3449   91.4532   14.1542 C.ar    1  UNL1        0.2538
     19 N          65.8031   91.7431   13.9554 N.ar    1  UNL1       -0.2143
     20 C          62.7830   84.4965   10.8568 C.ar    1  UNL1        0.0641
     21 C          63.6244   83.6629    9.9366 C.ar    1  UNL1        0.0054
     22 C          64.1842   82.3546   10.4111 C.ar    1  UNL1        0.0001
     23 C          63.9024   81.8800   11.8058 C.ar    1  UNL1        0.0047
     24 C          63.0609   82.7136   12.7261 C.ar    1  UNL1        0.0821
     25 C          62.5012   84.0219   12.2516 C.ar    1  UNL1        0.0659
     26 CL         61.6597   84.8555   13.1719 Cl      1  UNL1       -0.0822
     27 C          62.7791   82.2390   14.1209 C.3     1  UNL1        0.4194
     28 F          62.4974   81.7643   15.5156 F       1  UNL1       -0.1658
     29 F          63.9919   82.9706   14.6149 F       1  UNL1       -0.1658
     30 F          61.5664   81.5074   13.6269 F       1  UNL1       -0.1658
@<TRIPOS>BOND
     1    13    14    1
     2    14    15   ar
     3    15    16   ar
     4    16    17   ar
     5    17    18   ar
     6    18     1    1
     7     1     2   ar
     8     2     3   ar
     9     3     4   ar
    10     4     5   ar
    11     5     6    1
    12     6     7    1
    13     7     8    1
    14     8     9   am
    15     9    10    2
    16     9    20    1
    17    20    21   ar
    18    21    22   ar
    19    22    23   ar
    20    23    24   ar
    21    24    27    1
    22    27    28    1
    23    27    29    1
    24    27    30    1
    25    24    25   ar
    26    25    26    1
    27     8    11    1
    28    11    12    1
    29    18    19   ar
    30    19    14   ar
    31     5     1   ar
    32    25    20   ar
    33    11     4    1
