@<TRIPOS>MOLECULE
*****
 24 26 0 0 0
SMALL
GASTEIGER

@<TRIPOS>ATOM
      1 O          64.5731   91.9293   10.3572 O.2     1  UNL1       -0.2699
      2 C          65.3239   92.8763   11.2456 C.2     1  UNL1        0.2490
      3 N          65.3932   92.6237   12.7226 N.am    1  UNL1       -0.2763
      4 C          66.0056   94.0760   10.6571 C.ar    1  UNL1        0.0575
      5 C          65.4103   95.4408   10.8382 C.ar    1  UNL1        0.0045
      6 C          66.0918   96.6404   10.2497 C.ar    1  UNL1        0.0001
      7 C          67.3687   96.4752    9.4801 C.ar    1  UNL1       -0.0001
      8 C          67.9640   95.1103    9.2990 C.ar    1  UNL1        0.0040
      9 C          67.2824   93.9107    9.8875 C.ar    1  UNL1        0.0758
     10 C          67.8777   92.5459    9.7064 C.3     1  UNL1        0.4187
     11 F          68.4730   91.1810    9.5253 F       1  UNL1       -0.1659
     12 F          67.7730   92.3042   11.1831 F       1  UNL1       -0.1659
     13 F          67.9824   92.7875    8.2297 F       1  UNL1       -0.1659
     14 C          64.7116   91.4241   13.3111 C.3     1  UNL1        0.0927
     15 C          65.2974   90.4857   14.3242 C.3     1  UNL1        0.0383
     16 C          64.2723   89.4339   14.6290 C.3     1  UNL1        0.0704
     17 N          63.0529   89.7222   13.8044 N.3     1  UNL1       -0.2960
     18 C          63.3244   90.9523   12.9898 C.3     1  UNL1        0.0887
     19 H          62.2517   89.8814   14.4151 H       1  UNL1        0.1233
     20 C          66.1441   93.5707   13.6110 C.3     1  UNL1        0.0936
     21 C          67.1486   93.0421   14.5917 C.3     1  UNL1        0.0199
     22 C          68.4548   92.3130   14.4831 C.3     1  UNL1        0.0017
     23 C          68.5690   92.2947   15.9787 C.3     1  UNL1        0.0001
     24 C          67.2627   93.0238   16.0873 C.3     1  UNL1        0.0017
@<TRIPOS>BOND
     1     1     2    2
     2     2     4    1
     3     4     5   ar
     4     5     6   ar
     5     6     7   ar
     6     7     8   ar
     7     8     9   ar
     8     9    10    1
     9    10    11    1
    10    10    12    1
    11    10    13    1
    12     2     3   am
    13     3    20    1
    14    20    21    1
    15    21    22    1
    16    22    23    1
    17    23    24    1
    18    14     3    1
    19    14    15    1
    20    15    16    1
    21    16    17    1
    22    17    18    1
    23     9     4   ar
    24    24    21    1
    25    18    14    1
    26    17    19    1
@<TRIPOS>MOLECULE
*****
 24 26 0 0 0
SMALL
GASTEIGER

@<TRIPOS>ATOM
      1 O          63.6622   87.0907   13.1909 O.2     1  UNL1       -0.2699
      2 C          62.9475   86.1678   12.2488 C.2     1  UNL1        0.2490
      3 N          62.0003   86.7247   11.2277 N.am    1  UNL1       -0.2763
      4 C          63.1802   84.6880   12.3278 C.ar    1  UNL1        0.0575
      5 C          63.3065   83.8805   11.0701 C.ar    1  UNL1        0.0045
      6 C          63.5391   82.4008   11.1490 C.ar    1  UNL1        0.0001
      7 C          63.6454   81.7286   12.4857 C.ar    1  UNL1       -0.0001
      8 C          63.5191   82.5361   13.7435 C.ar    1  UNL1        0.0040
      9 C          63.2865   84.0158   13.6645 C.ar    1  UNL1        0.0758
     10 C          63.1602   84.8234   14.9223 C.3     1  UNL1        0.4187
     11 F          63.0339   85.6309   16.1800 F       1  UNL1       -0.1659
     12 F          64.6444   85.0402   14.9321 F       1  UNL1       -0.1659
     13 F          61.6760   84.6066   14.9124 F       1  UNL1       -0.1659
     14 C          61.7677   88.2044   11.1487 C.3     1  UNL1        0.0927
     15 C          62.5465   89.1760   10.3123 C.3     1  UNL1        0.0383
     16 C          61.9756   90.5444   10.5389 C.3     1  UNL1        0.0704
     17 N          60.8438   90.4187   11.5154 N.3     1  UNL1       -0.2960
     18 C          60.7154   88.9724   11.8923 C.3     1  UNL1        0.0887
     19 H          59.9776   90.7424   11.0849 H       1  UNL1        0.1233
     20 C          61.2857   85.8018   10.2856 C.3     1  UNL1        0.0936
     21 C          60.5042   86.3628    9.1347 C.3     1  UNL1        0.0199
     22 C          59.4550   87.4237    8.9820 C.3     1  UNL1        0.0017
     23 C          59.3990   87.1562    7.5070 C.3     1  UNL1        0.0001
     24 C          60.4483   86.0952    7.6598 C.3     1  UNL1        0.0017
@<TRIPOS>BOND
     1     1     2    2
     2     2     4    1
     3     4     5   ar
     4     5     6   ar
     5     6     7   ar
     6     7     8   ar
     7     8     9   ar
     8     9    10    1
     9    10    11    1
    10    10    12    1
    11    10    13    1
    12     2     3   am
    13     3    20    1
    14    20    21    1
    15    21    22    1
    16    22    23    1
    17    23    24    1
    18    14     3    1
    19    14    15    1
    20    15    16    1
    21    16    17    1
    22    17    18    1
    23     9     4   ar
    24    24    21    1
    25    18    14    1
    26    17    19    1
@<TRIPOS>MOLECULE
*****
 24 26 0 0 0
SMALL
GASTEIGER

@<TRIPOS>ATOM
      1 O          60.4162   86.1961    9.7289 O.2     1  UNL1       -0.2699
      2 C          61.6244   86.3518   10.6041 C.2     1  UNL1        0.2490
      3 N          61.9159   87.6728   11.2521 N.am    1  UNL1       -0.2763
      4 C          62.5411   85.1864   10.8314 C.ar    1  UNL1        0.0575
      5 C          62.7867   84.6857   12.2238 C.ar    1  UNL1        0.0045
      6 C          63.7033   83.5203   12.4511 C.ar    1  UNL1        0.0001
      7 C          64.3745   82.8557   11.2858 C.ar    1  UNL1       -0.0001
      8 C          64.1289   83.3564    9.8934 C.ar    1  UNL1        0.0040
      9 C          63.2123   84.5218    9.6661 C.ar    1  UNL1        0.0758
     10 C          62.9667   85.0225    8.2736 C.3     1  UNL1        0.4187
     11 F          62.7212   85.5232    6.8812 F       1  UNL1       -0.1659
     12 F          62.3378   83.7095    7.9124 F       1  UNL1       -0.1659
     13 F          63.5957   86.3355    8.6349 F       1  UNL1       -0.1659
     14 C          60.9992   88.8382   11.0249 C.3     1  UNL1        0.0927
     15 C          60.0310   89.4055   12.0203 C.3     1  UNL1        0.0383
     16 C          59.3232   90.5587   11.3730 C.3     1  UNL1        0.0704
     17 N          59.8540   90.7042    9.9775 N.3     1  UNL1       -0.2960
     18 C          60.8898   89.6408    9.7624 C.3     1  UNL1        0.0887
     19 H          60.2750   91.6260    9.8617 H       1  UNL1        0.1233
     20 C          63.1241   87.8285   12.1274 C.3     1  UNL1        0.0936
     21 C          63.4753   89.1746   12.6885 C.3     1  UNL1        0.0199
     22 C          63.8303   89.6968   14.0490 C.3     1  UNL1        0.0017
     23 C          63.9720   91.0782   13.4819 C.3     1  UNL1        0.0001
     24 C          63.6170   90.5560   12.1213 C.3     1  UNL1        0.0017
@<TRIPOS>BOND
     1     1     2    2
     2     2     4    1
     3     4     5   ar
     4     5     6   ar
     5     6     7   ar
     6     7     8   ar
     7     8     9   ar
     8     9    10    1
     9    10    11    1
    10    10    12    1
    11    10    13    1
    12     2     3   am
    13     3    20    1
    14    20    21    1
    15    21    22    1
    16    22    23    1
    17    23    24    1
    18    14     3    1
    19    14    15    1
    20    15    16    1
    21    16    17    1
    22    17    18    1
    23     9     4   ar
    24    24    21    1
    25    18    14    1
    26    17    19    1
@<TRIPOS>MOLECULE
*****
 24 26 0 0 0
SMALL
GASTEIGER

@<TRIPOS>ATOM
      1 O          64.4626   91.8960   14.9974 O.2     1  UNL1       -0.2699
      2 C          65.0155   91.6317   13.6283 C.2     1  UNL1        0.2490
      3 N          66.4417   91.9757   13.3162 N.am    1  UNL1       -0.2763
      4 C          64.1421   91.0233   12.5713 C.ar    1  UNL1        0.0575
      5 C          63.9949   91.6984   11.2400 C.ar    1  UNL1        0.0045
      6 C          63.1216   91.0901   10.1830 C.ar    1  UNL1        0.0001
      7 C          62.3954   89.8067   10.4575 C.ar    1  UNL1       -0.0001
      8 C          62.5426   89.1315   11.7888 C.ar    1  UNL1        0.0040
      9 C          63.4159   89.7399   12.8458 C.ar    1  UNL1        0.0758
     10 C          63.5631   89.0647   14.1771 C.3     1  UNL1        0.4187
     11 F          63.7102   88.3896   15.5085 F       1  UNL1       -0.1659
     12 F          62.4977   89.9543   14.7460 F       1  UNL1       -0.1659
     13 F          64.6284   88.1751   13.6083 F       1  UNL1       -0.1659
     14 C          67.3151   92.5841   14.3731 C.3     1  UNL1        0.0927
     15 C          68.3519   91.8632   15.1826 C.3     1  UNL1        0.0383
     16 C          68.9826   92.8538   16.1159 C.3     1  UNL1        0.0704
     17 N          68.3355   94.1870   15.8832 N.3     1  UNL1       -0.2960
     18 C          67.3049   94.0203   14.8061 C.3     1  UNL1        0.0887
     19 H          69.0375   94.8657   15.5886 H       1  UNL1        0.1233
     20 C          66.9946   91.7114   11.9471 C.3     1  UNL1        0.0936
     21 C          67.1068   92.8306   10.9546 C.3     1  UNL1        0.0199
     22 C          67.7751   93.0044    9.6231 C.3     1  UNL1        0.0017
     23 C          67.2655   94.4134    9.5512 C.3     1  UNL1        0.0001
     24 C          66.5972   94.2396   10.8828 C.3     1  UNL1        0.0017
@<TRIPOS>BOND
     1     1     2    2
     2     2     4    1
     3     4     5   ar
     4     5     6   ar
     5     6     7   ar
     6     7     8   ar
     7     8     9   ar
     8     9    10    1
     9    10    11    1
    10    10    12    1
    11    10    13    1
    12     2     3   am
    13     3    20    1
    14    20    21    1
    15    21    22    1
    16    22    23    1
    17    23    24    1
    18    14     3    1
    19    14    15    1
    20    15    16    1
    21    16    17    1
    22    17    18    1
    23     9     4   ar
    24    24    21    1
    25    18    14    1
    26    17    19    1
@<TRIPOS>MOLECULE
*****
 24 26 0 0 0
SMALL
GASTEIGER

@<TRIPOS>ATOM
      1 O          61.9725   84.9667   11.2990 O.2     1  UNL1       -0.2699
      2 C          62.7237   85.8813   12.2204 C.2     1  UNL1        0.2490
      3 N          63.3977   85.3282   13.4409 N.am    1  UNL1       -0.2763
      4 C          62.8010   87.3492   11.9213 C.ar    1  UNL1        0.0575
      5 C          63.5065   88.2719   12.8704 C.ar    1  UNL1        0.0045
      6 C          63.5837   89.7397   12.5714 C.ar    1  UNL1        0.0001
      7 C          62.9555   90.2849   11.3231 C.ar    1  UNL1       -0.0001
      8 C          62.2501   89.3622   10.3740 C.ar    1  UNL1        0.0040
      9 C          62.1728   87.8943   10.6730 C.ar    1  UNL1        0.0758
     10 C          61.4673   86.9716    9.7239 C.3     1  UNL1        0.4187
     11 F          60.7618   86.0489    8.7747 F       1  UNL1       -0.1659
     12 F          62.7503   86.7598    8.9762 F       1  UNL1       -0.1659
     13 F          60.1843   87.1834   10.4716 F       1  UNL1       -0.1659
     14 C          63.3205   83.8603   13.7401 C.3     1  UNL1        0.0927
     15 C          64.1846   82.7914   13.1394 C.3     1  UNL1        0.0383
     16 C          63.7637   81.4741   13.7205 C.3     1  UNL1        0.0704
     17 N          62.6394   81.7289   14.6803 N.3     1  UNL1       -0.2960
     18 C          62.3655   83.2037   14.6924 C.3     1  UNL1        0.0887
     19 H          62.9051   81.4185   15.6149 H       1  UNL1        0.1233
     20 C          64.1490   86.2428   14.3623 C.3     1  UNL1        0.0936
     21 C          63.6040   86.5460   15.7266 C.3     1  UNL1        0.0199
     22 C          63.2929   87.7990   16.4900 C.3     1  UNL1        0.0017
     23 C          62.8334   86.9747   17.6559 C.3     1  UNL1        0.0001
     24 C          63.1445   85.7216   16.8925 C.3     1  UNL1        0.0017
@<TRIPOS>BOND
     1     1     2    2
     2     2     4    1
     3     4     5   ar
     4     5     6   ar
     5     6     7   ar
     6     7     8   ar
     7     8     9   ar
     8     9    10    1
     9    10    11    1
    10    10    12    1
    11    10    13    1
    12     2     3   am
    13     3    20    1
    14    20    21    1
    15    21    22    1
    16    22    23    1
    17    23    24    1
    18    14     3    1
    19    14    15    1
    20    15    16    1
    21    16    17    1
    22    17    18    1
    23     9     4   ar
    24    24    21    1
    25    18    14    1
    26    17    19    1
@<TRIPOS>MOLECULE
*****
 24 26 0 0 0
SMALL
GASTEIGER

@<TRIPOS>ATOM
      1 O          62.9501   90.9163   12.2286 O.2     1  UNL1       -0.2699
      2 C          63.2093   89.5455   12.7797 C.2     1  UNL1        0.2490
      3 N          64.0824   89.3755   13.9874 N.am    1  UNL1       -0.2763
      4 C          62.5954   88.3447   12.1229 C.ar    1  UNL1        0.0575
      5 C          63.2625   87.0058   12.2344 C.ar    1  UNL1        0.0045
      6 C          62.6487   85.8051   11.5776 C.ar    1  UNL1        0.0001
      7 C          61.3678   85.9432   10.8093 C.ar    1  UNL1       -0.0001
      8 C          60.7008   87.2821   10.6978 C.ar    1  UNL1        0.0040
      9 C          61.3146   88.4829   11.3546 C.ar    1  UNL1        0.0758
     10 C          60.6476   89.8218   11.2430 C.3     1  UNL1        0.4187
     11 F          59.9806   91.1607   11.1315 F       1  UNL1       -0.1659
     12 F          61.2644   90.0163    9.8896 F       1  UNL1       -0.1659
     13 F          60.0308   89.6272   12.5964 F       1  UNL1       -0.1659
     14 C          64.6963   90.5763   14.6443 C.3     1  UNL1        0.0927
     15 C          65.9879   91.2311   14.2535 C.3     1  UNL1        0.0383
     16 C          66.2162   92.3925   15.1748 C.3     1  UNL1        0.0704
     17 N          65.0655   92.4555   16.1351 N.3     1  UNL1       -0.2960
     18 C          64.1261   91.3329   15.8072 C.3     1  UNL1        0.0887
     19 H          64.5835   93.3493   16.0396 H       1  UNL1        0.1233
     20 C          64.3416   88.0046   14.5385 C.3     1  UNL1        0.0936
     21 C          63.6848   87.5734   15.8162 C.3     1  UNL1        0.0199
     22 C          63.4310   86.2556   16.4861 C.3     1  UNL1        0.0017
     23 C          62.7558   86.9636   17.6232 C.3     1  UNL1        0.0001
     24 C          63.0096   88.2814   16.9533 C.3     1  UNL1        0.0017
@<TRIPOS>BOND
     1     1     2    2
     2     2     4    1
     3     4     5   ar
     4     5     6   ar
     5     6     7   ar
     6     7     8   ar
     7     8     9   ar
     8     9    10    1
     9    10    11    1
    10    10    12    1
    11    10    13    1
    12     2     3   am
    13     3    20    1
    14    20    21    1
    15    21    22    1
    16    22    23    1
    17    23    24    1
    18    14     3    1
    19    14    15    1
    20    15    16    1
    21    16    17    1
    22    17    18    1
    23     9     4   ar
    24    24    21    1
    25    18    14    1
    26    17    19    1
@<TRIPOS>MOLECULE
*****
 24 26 0 0 0
SMALL
GASTEIGER

@<TRIPOS>ATOM
      1 O          66.5360   90.4258   14.8750 O.2     1  UNL1       -0.2699
      2 C          65.4351   90.8757   13.9609 C.2     1  UNL1        0.2490
      3 N          64.1275   90.1410   13.9434 N.am    1  UNL1       -0.2763
      4 C          65.6418   92.0604   13.0643 C.ar    1  UNL1        0.0575
      5 C          65.1419   92.0272   11.6505 C.ar    1  UNL1        0.0045
      6 C          65.3485   93.2119   10.7539 C.ar    1  UNL1        0.0001
      7 C          66.0552   94.4297   11.2711 C.ar    1  UNL1       -0.0001
      8 C          66.5551   94.4628   12.6850 C.ar    1  UNL1        0.0040
      9 C          66.3484   93.2782   13.5816 C.ar    1  UNL1        0.0758
     10 C          66.8484   93.3114   14.9954 C.3     1  UNL1        0.4187
     11 F          67.3483   93.3446   16.4093 F       1  UNL1       -0.1659
     12 F          65.4342   93.3190   15.4953 F       1  UNL1       -0.1659
     13 F          68.2626   93.3037   14.4955 F       1  UNL1       -0.1659
     14 C          63.9208   88.9563   14.8400 C.3     1  UNL1        0.0927
     15 C          64.3892   87.5565   14.5735 C.3     1  UNL1        0.0383
     16 C          63.9672   86.6985   15.7293 C.3     1  UNL1        0.0704
     17 N          63.2380   87.5681   16.7102 N.3     1  UNL1       -0.2960
     18 C          63.2093   88.9636   16.1605 C.3     1  UNL1        0.0887
     19 H          63.7228   87.5595   17.6076 H       1  UNL1        0.1233
     20 C          63.0266   90.5909   13.0294 C.3     1  UNL1        0.0936
     21 C          62.6950   89.7913   11.8043 C.3     1  UNL1        0.0199
     22 C          62.3669   90.1219   10.3786 C.3     1  UNL1        0.0017
     23 C          62.2261   88.6603   10.0719 C.3     1  UNL1        0.0001
     24 C          62.5542   88.3297   11.4978 C.3     1  UNL1        0.0017
@<TRIPOS>BOND
     1     1     2    2
     2     2     4    1
     3     4     5   ar
     4     5     6   ar
     5     6     7   ar
     6     7     8   ar
     7     8     9   ar
     8     9    10    1
     9    10    11    1
    10    10    12    1
    11    10    13    1
    12     2     3   am
    13     3    20    1
    14    20    21    1
    15    21    22    1
    16    22    23    1
    17    23    24    1
    18    14     3    1
    19    14    15    1
    20    15    16    1
    21    16    17    1
    22    17    18    1
    23     9     4   ar
    24    24    21    1
    25    18    14    1
    26    17    19    1
@<TRIPOS>MOLECULE
*****
 24 26 0 0 0
SMALL
GASTEIGER

@<TRIPOS>ATOM
      1 O          62.6138   85.6498    8.5929 O.2     1  UNL1       -0.2699
      2 C          62.4075   86.1896    9.9772 C.2     1  UNL1        0.2490
      3 N          62.6667   85.3164   11.1690 N.am    1  UNL1       -0.2763
      4 C          61.9421   87.6025   10.1696 C.ar    1  UNL1        0.0575
      5 C          62.7042   88.5268   11.0724 C.ar    1  UNL1        0.0045
      6 C          62.2389   89.9397   11.2649 C.ar    1  UNL1        0.0001
      7 C          61.0115   90.4284   10.5546 C.ar    1  UNL1       -0.0001
      8 C          60.2494   89.5041    9.6518 C.ar    1  UNL1        0.0040
      9 C          60.7147   88.0912    9.4594 C.ar    1  UNL1        0.0758
     10 C          59.9526   87.1669    8.5566 C.3     1  UNL1        0.4187
     11 F          59.1905   86.2427    7.6539 F       1  UNL1       -0.1659
     12 F          60.1344   88.1279    7.4193 F       1  UNL1       -0.1659
     13 F          59.7708   86.2060    9.6939 F       1  UNL1       -0.1659
     14 C          63.1321   83.9034   10.9765 C.3     1  UNL1        0.0927
     15 C          62.5499   82.6863   11.6321 C.3     1  UNL1        0.0383
     16 C          63.3194   81.4902   11.1554 C.3     1  UNL1        0.0704
     17 N          64.3772   81.9681   10.2052 N.3     1  UNL1       -0.2960
     18 C          64.2614   83.4596   10.0947 C.3     1  UNL1        0.0887
     19 H          64.2382   81.5412    9.2893 H       1  UNL1        0.1233
     20 C          62.4605   85.8561   12.5532 C.3     1  UNL1        0.0936
     21 C          63.5749   85.7958   13.5555 C.3     1  UNL1        0.0199
     22 C          64.2747   86.7978   14.4251 C.3     1  UNL1        0.0017
     23 C          65.1510   85.7105   14.9728 C.3     1  UNL1        0.0001
     24 C          64.4512   84.7085   14.1032 C.3     1  UNL1        0.0017
@<TRIPOS>BOND
     1     1     2    2
     2     2     4    1
     3     4     5   ar
     4     5     6   ar
     5     6     7   ar
     6     7     8   ar
     7     8     9   ar
     8     9    10    1
     9    10    11    1
    10    10    12    1
    11    10    13    1
    12     2     3   am
    13     3    20    1
    14    20    21    1
    15    21    22    1
    16    22    23    1
    17    23    24    1
    18    14     3    1
    19    14    15    1
    20    15    16    1
    21    16    17    1
    22    17    18    1
    23     9     4   ar
    24    24    21    1
    25    18    14    1
    26    17    19    1
@<TRIPOS>MOLECULE
*****
 24 26 0 0 0
SMALL
GASTEIGER

@<TRIPOS>ATOM
      1 O          62.5189   88.7720    9.8071 O.2     1  UNL1       -0.2699
      2 C          62.5667   87.7148   10.8701 C.2     1  UNL1        0.2490
      3 N          62.0341   86.3415   10.5865 N.am    1  UNL1       -0.2763
      4 C          63.1470   88.0309   12.2167 C.ar    1  UNL1        0.0575
      5 C          63.6721   86.9263   13.0852 C.ar    1  UNL1        0.0045
      6 C          64.2523   87.2424   14.4318 C.ar    1  UNL1        0.0001
      7 C          64.3075   88.6630   14.9099 C.ar    1  UNL1       -0.0001
      8 C          63.7824   89.7676   14.0415 C.ar    1  UNL1        0.0040
      9 C          63.2022   89.4516   12.6949 C.ar    1  UNL1        0.0758
     10 C          62.6771   90.5561   11.8265 C.3     1  UNL1        0.4187
     11 F          62.1520   91.6607   10.9580 F       1  UNL1       -0.1659
     12 F          61.2750   90.2049   12.2274 F       1  UNL1       -0.1659
     13 F          64.0791   90.9074   11.4255 F       1  UNL1       -0.1659
     14 C          61.4538   86.0254    9.2399 C.3     1  UNL1        0.0927
     15 C          62.1838   85.3948    8.0912 C.3     1  UNL1        0.0383
     16 C          61.2228   85.2641    6.9469 C.3     1  UNL1        0.0704
     17 N          59.8988   85.8138    7.3884 N.3     1  UNL1       -0.2960
     18 C          60.0416   86.2844    8.8056 C.3     1  UNL1        0.0887
     19 H          59.1866   85.0856    7.3356 H       1  UNL1        0.1233
     20 C          62.0819   85.2843   11.6495 C.3     1  UNL1        0.0936
     21 C          62.7997   83.9928   11.3911 C.3     1  UNL1        0.0199
     22 C          62.6848   82.5921   11.9153 C.3     1  UNL1        0.0017
     23 C          63.8150   82.1664   11.0256 C.3     1  UNL1        0.0001
     24 C          63.9300   83.5671   10.5015 C.3     1  UNL1        0.0017
@<TRIPOS>BOND
     1     1     2    2
     2     2     4    1
     3     4     5   ar
     4     5     6   ar
     5     6     7   ar
     6     7     8   ar
     7     8     9   ar
     8     9    10    1
     9    10    11    1
    10    10    12    1
    11    10    13    1
    12     2     3   am
    13     3    20    1
    14    20    21    1
    15    21    22    1
    16    22    23    1
    17    23    24    1
    18    14     3    1
    19    14    15    1
    20    15    16    1
    21    16    17    1
    22    17    18    1
    23     9     4   ar
    24    24    21    1
    25    18    14    1
    26    17    19    1
