@<TRIPOS>MOLECULE
*****
 31 34 0 0 0
SMALL
GASTEIGER

@<TRIPOS>ATOM
      1 C          55.7609   94.8087   -1.6714 C.ar    1  UNL1        0.0515
      2 C          56.2813   93.4019   -1.6826 C.ar    1  UNL1        0.0160
      3 C          57.6743   93.1138   -1.2067 C.ar    1  UNL1        0.0175
      4 C          58.5469   94.2323   -0.7196 C.ar    1  UNL1        0.0718
      5 C          58.0265   95.6391   -0.7084 C.ar    1  UNL1        0.0730
      6 CL         58.8991   96.7578   -0.2213 Cl      1  UNL1       -0.0809
      7 C          56.6335   95.9273   -1.1843 C.ar    1  UNL1        0.0273
      8 N          59.9399   93.9442   -0.2436 N.am    1  UNL1       -0.2003
      9 C          60.3161   93.3897    1.0984 C.2     1  UNL1        0.2589
     10 O          59.3654   93.0261    2.2001 O.2     1  UNL1       -0.2691
     11 C          61.8100   93.2627    1.1453 C.ar    1  UNL1        0.0587
     12 C          62.7428   92.7752    2.2140 C.ar    1  UNL1        0.0047
     13 C          64.2227   92.7636    1.9696 C.ar    1  UNL1        0.0002
     14 C          64.7698   93.2396    0.6565 C.ar    1  UNL1        0.0002
     15 C          63.8370   93.7271   -0.4122 C.ar    1  UNL1        0.0047
     16 C          62.3571   93.7387   -0.1678 C.ar    1  UNL1        0.0587
     17 C          61.2013   94.1598   -1.0262 C.2     1  UNL1        0.2589
     18 O          61.2912   94.7016   -2.4221 O.2     1  UNL1       -0.2691
     19 C          54.1526   95.9214   -3.3817 C.2     1  UNL1        0.2685
     20 O          55.3303   96.4578   -4.1402 O.2     1  UNL1       -0.2681
     21 N          54.3679   95.0969   -2.1474 N.am    1  UNL1       -0.2791
     22 H          53.5949   94.7448   -1.6495 H       1  UNL1        0.1552
     23 N          53.5101   95.7887   -6.3090 N.pl3   1  UNL1       -0.3557
     24 C          52.4383   96.1432   -5.3213 C.ar    1  UNL1        0.0640
     25 C          51.0453   96.4314   -5.7972 C.ar    1  UNL1        0.0174
     26 C          49.9736   96.7859   -4.8095 C.ar    1  UNL1        0.0219
     27 C          50.2948   96.8523   -3.3458 C.ar    1  UNL1        0.0991
     28 N          51.6878   96.5641   -2.8698 N.ar    1  UNL1       -0.2380
     29 C          52.7596   96.2096   -3.8577 C.ar    1  UNL1        0.1475
     30 H          53.2992   95.7452   -7.2697 H       1  UNL1        0.1424
     31 H          54.4243   95.5996   -5.9967 H       1  UNL1        0.1424
@<TRIPOS>BOND
     1    23    24    1
     2    24    25   ar
     3    25    26   ar
     4    26    27   ar
     5    27    28   ar
     6    28    29   ar
     7    29    19    1
     8    19    20    2
     9    19    21   am
    10    21     1    1
    11     1     2   ar
    12     2     3   ar
    13     3     4   ar
    14     4     8    1
    15     8     9   am
    16     9    10    2
    17     9    11    1
    18    11    12   ar
    19    12    13   ar
    20    13    14   ar
    21    14    15   ar
    22    15    16   ar
    23    16    17    1
    24    17    18    2
    25     4     5   ar
    26     5     6    1
    27     5     7   ar
    28    29    24   ar
    29     7     1   ar
    30    17     8   am
    31    16    11   ar
    32    23    30    1
    33    23    31    1
    34    21    22    1
@<TRIPOS>MOLECULE
*****
 31 34 0 0 0
SMALL
GASTEIGER

@<TRIPOS>ATOM
      1 C          63.9041   90.4933   12.5553 C.ar    1  UNL1        0.0515
      2 C          64.5305   89.7306   13.6849 C.ar    1  UNL1        0.0160
      3 C          64.2733   88.2600   13.8305 C.ar    1  UNL1        0.0175
      4 C          63.3899   87.5520   12.8465 C.ar    1  UNL1        0.0718
      5 C          62.7635   88.3147   11.7169 C.ar    1  UNL1        0.0730
      6 CL         61.8800   87.6067   10.7329 Cl      1  UNL1       -0.0809
      7 C          63.0207   89.7853   11.5713 C.ar    1  UNL1        0.0273
      8 N          63.1328   86.0814   12.9922 N.am    1  UNL1       -0.2003
      9 C          63.0091   85.0927   11.8710 C.2     1  UNL1        0.2589
     10 O          63.1208   85.4010   10.4073 O.2     1  UNL1       -0.2691
     11 C          62.7541   83.7415   12.4704 C.ar    1  UNL1        0.0587
     12 C          62.5484   82.3912   11.8507 C.ar    1  UNL1        0.0047
     13 C          62.3088   81.1945   12.7227 C.ar    1  UNL1        0.0002
     14 C          62.2748   81.3481   14.2144 C.ar    1  UNL1        0.0002
     15 C          62.4805   82.6985   14.8342 C.ar    1  UNL1        0.0047
     16 C          62.7201   83.8952   13.9622 C.ar    1  UNL1        0.0587
     17 C          62.9542   85.3413   14.2846 C.2     1  UNL1        0.2589
     18 O          63.0014   85.9419   15.6583 O.2     1  UNL1       -0.2691
     19 C          65.3408   92.4442   11.6172 C.2     1  UNL1        0.2685
     20 O          66.2633   91.4538   10.9704 O.2     1  UNL1       -0.2681
     21 N          64.1612   91.9639   12.4096 N.am    1  UNL1       -0.2791
     22 H          63.5558   92.6138   12.8341 H       1  UNL1        0.1552
     23 N          66.6270   93.9710   13.8564 N.pl3   1  UNL1       -0.3557
     24 C          66.2410   94.6782   12.5912 C.ar    1  UNL1        0.0640
     25 C          66.4981   96.1488   12.4455 C.ar    1  UNL1        0.0174
     26 C          66.1121   96.8560   11.1803 C.ar    1  UNL1        0.0219
     27 C          65.4689   96.0925   10.0606 C.ar    1  UNL1        0.0991
     28 N          65.2118   94.6219   10.2063 N.ar    1  UNL1       -0.2380
     29 C          65.5979   93.9148   11.4716 C.ar    1  UNL1        0.1475
     30 H          67.0492   94.4721   14.5912 H       1  UNL1        0.1424
     31 H          66.4583   93.0058   13.9519 H       1  UNL1        0.1424
@<TRIPOS>BOND
     1    23    24    1
     2    24    25   ar
     3    25    26   ar
     4    26    27   ar
     5    27    28   ar
     6    28    29   ar
     7    29    19    1
     8    19    20    2
     9    19    21   am
    10    21     1    1
    11     1     2   ar
    12     2     3   ar
    13     3     4   ar
    14     4     8    1
    15     8     9   am
    16     9    10    2
    17     9    11    1
    18    11    12   ar
    19    12    13   ar
    20    13    14   ar
    21    14    15   ar
    22    15    16   ar
    23    16    17    1
    24    17    18    2
    25     4     5   ar
    26     5     6    1
    27     5     7   ar
    28    29    24   ar
    29     7     1   ar
    30    17     8   am
    31    16    11   ar
    32    23    30    1
    33    23    31    1
    34    21    22    1
@<TRIPOS>MOLECULE
*****
 31 34 0 0 0
SMALL
GASTEIGER

@<TRIPOS>ATOM
      1 C          64.4300   86.5296   14.3676 C.ar    1  UNL1        0.0515
      2 C          65.1743   85.2953   14.7829 C.ar    1  UNL1        0.0160
      3 C          64.8680   83.9797   14.1306 C.ar    1  UNL1        0.0175
      4 C          63.8174   83.8984   13.0631 C.ar    1  UNL1        0.0718
      5 C          63.0732   85.1327   12.6479 C.ar    1  UNL1        0.0730
      6 CL         62.0225   85.0515   11.5803 Cl      1  UNL1       -0.0809
      7 C          63.3794   86.4483   13.3001 C.ar    1  UNL1        0.0273
      8 N          63.5112   82.5828   12.4109 N.am    1  UNL1       -0.2003
      9 C          63.0316   81.3439   13.1073 C.2     1  UNL1        0.2589
     10 O          62.7741   81.2030   14.5783 O.2     1  UNL1       -0.2691
     11 C          62.8547   80.2705   12.0745 C.ar    1  UNL1        0.0587
     12 C          62.4043   78.8435   12.1771 C.ar    1  UNL1        0.0047
     13 C          62.3242   77.9920   10.9448 C.ar    1  UNL1        0.0002
     14 C          62.6945   78.5675    9.6100 C.ar    1  UNL1        0.0002
     15 C          63.1448   79.9946    9.5075 C.ar    1  UNL1        0.0047
     16 C          63.2250   80.8461   10.7398 C.ar    1  UNL1        0.0587
     17 C          63.6307   82.2752   10.9476 C.2     1  UNL1        0.2589
     18 O          64.0774   83.2291    9.8797 O.2     1  UNL1       -0.2691
     19 C          64.4778   89.1258   14.2830 C.2     1  UNL1        0.2685
     20 O          63.9130   89.0909   12.8938 O.2     1  UNL1       -0.2681
     21 N          64.7363   87.8452   15.0199 N.am    1  UNL1       -0.2791
     22 H          65.1070   87.8681   15.9317 H       1  UNL1        0.1552
     23 N          62.8253   90.0714   16.6014 N.pl3   1  UNL1       -0.3557
     24 C          63.9579   90.9142   16.0945 C.ar    1  UNL1        0.0640
     25 C          64.2641   92.2297   16.7467 C.ar    1  UNL1        0.0174
     26 C          65.3967   93.0725   16.2398 C.ar    1  UNL1        0.0219
     27 C          66.2230   92.5998   15.0805 C.ar    1  UNL1        0.0991
     28 N          65.9167   91.2842   14.4283 N.ar    1  UNL1       -0.2380
     29 C          64.7841   90.4414   14.9353 C.ar    1  UNL1        0.1475
     30 H          62.2830   90.3816   17.3622 H       1  UNL1        0.1424
     31 H          62.6243   89.2079   16.1733 H       1  UNL1        0.1424
@<TRIPOS>BOND
     1    23    24    1
     2    24    25   ar
     3    25    26   ar
     4    26    27   ar
     5    27    28   ar
     6    28    29   ar
     7    29    19    1
     8    19    20    2
     9    19    21   am
    10    21     1    1
    11     1     2   ar
    12     2     3   ar
    13     3     4   ar
    14     4     8    1
    15     8     9   am
    16     9    10    2
    17     9    11    1
    18    11    12   ar
    19    12    13   ar
    20    13    14   ar
    21    14    15   ar
    22    15    16   ar
    23    16    17    1
    24    17    18    2
    25     4     5   ar
    26     5     6    1
    27     5     7   ar
    28    29    24   ar
    29     7     1   ar
    30    17     8   am
    31    16    11   ar
    32    23    30    1
    33    23    31    1
    34    21    22    1
@<TRIPOS>MOLECULE
*****
 31 34 0 0 0
SMALL
GASTEIGER

@<TRIPOS>ATOM
      1 C          56.6108   94.7566   -3.6481 C.ar    1  UNL1        0.0515
      2 C          56.9952   93.3444   -3.3197 C.ar    1  UNL1        0.0160
      3 C          58.2239   93.0721   -2.5035 C.ar    1  UNL1        0.0175
      4 C          59.0682   94.2119   -2.0158 C.ar    1  UNL1        0.0718
      5 C          58.6838   95.6241   -2.3443 C.ar    1  UNL1        0.0730
      6 CL         59.5281   96.7640   -1.8566 Cl      1  UNL1       -0.0809
      7 C          57.4551   95.8964   -3.1604 C.ar    1  UNL1        0.0273
      8 N          60.2969   93.9395   -1.1996 N.am    1  UNL1       -0.2003
      9 C          61.7151   94.1017   -1.6602 C.2     1  UNL1        0.2589
     10 O          62.1538   94.5647   -3.0178 O.2     1  UNL1       -0.2691
     11 C          62.6178   93.7196   -0.5248 C.ar    1  UNL1        0.0587
     12 C          64.1121   93.6829   -0.3991 C.ar    1  UNL1        0.0047
     13 C          64.7459   93.2478    0.8889 C.ar    1  UNL1        0.0002
     14 C          63.8855   92.8495    2.0512 C.ar    1  UNL1        0.0002
     15 C          62.3913   92.8862    1.9256 C.ar    1  UNL1        0.0047
     16 C          61.7574   93.3212    0.6376 C.ar    1  UNL1        0.0587
     17 C          60.3230   93.4571    0.2205 C.2     1  UNL1        0.2589
     18 O          59.1250   93.1624    1.0737 O.2     1  UNL1       -0.2691
     19 C          54.2549   95.8272   -3.8794 C.2     1  UNL1        0.2685
     20 O          54.3564   96.3532   -2.4783 O.2     1  UNL1       -0.2681
     21 N          55.3821   95.0290   -4.4643 N.am    1  UNL1       -0.2791
     22 H          55.3155   94.6838   -5.3839 H       1  UNL1        0.1552
     23 N          51.5605   95.8825   -2.5616 N.pl3   1  UNL1       -0.3557
     24 C          51.6791   96.1273   -4.0367 C.ar    1  UNL1        0.0640
     25 C          50.4504   96.3996   -4.8529 C.ar    1  UNL1        0.0174
     26 C          50.5689   96.6443   -6.3280 C.ar    1  UNL1        0.0219
     27 C          51.9161   96.6167   -6.9870 C.ar    1  UNL1        0.0991
     28 N          53.1448   96.3443   -6.1708 N.ar    1  UNL1       -0.2380
     29 C          53.0263   96.0996   -4.6956 C.ar    1  UNL1        0.1475
     30 H          50.6763   95.9007   -2.1291 H       1  UNL1        0.1424
     31 H          52.3670   95.7038   -2.0259 H       1  UNL1        0.1424
@<TRIPOS>BOND
     1    23    24    1
     2    24    25   ar
     3    25    26   ar
     4    26    27   ar
     5    27    28   ar
     6    28    29   ar
     7    29    19    1
     8    19    20    2
     9    19    21   am
    10    21     1    1
    11     1     2   ar
    12     2     3   ar
    13     3     4   ar
    14     4     8    1
    15     8     9   am
    16     9    10    2
    17     9    11    1
    18    11    12   ar
    19    12    13   ar
    20    13    14   ar
    21    14    15   ar
    22    15    16   ar
    23    16    17    1
    24    17    18    2
    25     4     5   ar
    26     5     6    1
    27     5     7   ar
    28    29    24   ar
    29     7     1   ar
    30    17     8   am
    31    16    11   ar
    32    23    30    1
    33    23    31    1
    34    21    22    1
@<TRIPOS>MOLECULE
*****
 31 34 0 0 0
SMALL
GASTEIGER

@<TRIPOS>ATOM
      1 C          63.8384   90.4140   12.5225 C.ar    1  UNL1        0.0515
      2 C          62.9657   89.7057   11.5293 C.ar    1  UNL1        0.0160
      3 C          62.7126   88.2338   11.6687 C.ar    1  UNL1        0.0175
      4 C          63.3323   87.4702   12.8013 C.ar    1  UNL1        0.0718
      5 C          64.2050   88.1784   13.7945 C.ar    1  UNL1        0.0730
      6 CL         64.8248   87.4148   14.9272 Cl      1  UNL1       -0.0809
      7 C          64.4581   89.6504   13.6551 C.ar    1  UNL1        0.0273
      8 N          63.0792   85.9982   12.9406 N.am    1  UNL1       -0.2003
      9 C          62.8834   85.2554   14.2290 C.2     1  UNL1        0.2589
     10 O          62.9062   85.8540   15.6042 O.2     1  UNL1       -0.2691
     11 C          62.6606   83.8088   13.9007 C.ar    1  UNL1        0.0587
     12 C          62.4124   82.6097   14.7670 C.ar    1  UNL1        0.0047
     13 C          62.2223   81.2594   14.1421 C.ar    1  UNL1        0.0002
     14 C          62.2805   81.1082   12.6509 C.ar    1  UNL1        0.0002
     15 C          62.5287   82.3073   11.7846 C.ar    1  UNL1        0.0047
     16 C          62.7188   83.6576   12.4095 C.ar    1  UNL1        0.0587
     17 C          62.9775   85.0107   11.8162 C.2     1  UNL1        0.2589
     18 O          63.1110   85.3217   10.3548 O.2     1  UNL1       -0.2691
     19 C          65.3177   92.3717   11.6687 C.2     1  UNL1        0.2685
     20 O          66.2908   91.3856   11.0936 O.2     1  UNL1       -0.2681
     21 N          64.0915   91.8859   12.3832 N.am    1  UNL1       -0.2791
     22 H          63.4528   92.5331   12.7606 H       1  UNL1        0.1552
     23 N          66.6105   93.8903   13.9097 N.pl3   1  UNL1       -0.3557
     24 C          66.2172   94.6029   12.6499 C.ar    1  UNL1        0.0640
     25 C          66.4703   96.0748   12.5105 C.ar    1  UNL1        0.0174
     26 C          66.0769   96.7875   11.2506 C.ar    1  UNL1        0.0219
     27 C          65.4304   96.0282   10.1300 C.ar    1  UNL1        0.0991
     28 N          65.1774   94.5563   10.2694 N.ar    1  UNL1       -0.2380
     29 C          65.5707   93.8436   11.5293 C.ar    1  UNL1        0.1475
     30 H          67.0348   94.3886   14.6452 H       1  UNL1        0.1424
     31 H          66.4444   92.9242   14.0012 H       1  UNL1        0.1424
@<TRIPOS>BOND
     1    23    24    1
     2    24    25   ar
     3    25    26   ar
     4    26    27   ar
     5    27    28   ar
     6    28    29   ar
     7    29    19    1
     8    19    20    2
     9    19    21   am
    10    21     1    1
    11     1     2   ar
    12     2     3   ar
    13     3     4   ar
    14     4     8    1
    15     8     9   am
    16     9    10    2
    17     9    11    1
    18    11    12   ar
    19    12    13   ar
    20    13    14   ar
    21    14    15   ar
    22    15    16   ar
    23    16    17    1
    24    17    18    2
    25     4     5   ar
    26     5     6    1
    27     5     7   ar
    28    29    24   ar
    29     7     1   ar
    30    17     8   am
    31    16    11   ar
    32    23    30    1
    33    23    31    1
    34    21    22    1
@<TRIPOS>MOLECULE
*****
 31 34 0 0 0
SMALL
GASTEIGER

@<TRIPOS>ATOM
      1 C          57.0165   96.1518   -3.1593 C.ar    1  UNL1        0.0515
      2 C          56.9924   95.3837   -1.8711 C.ar    1  UNL1        0.0160
      3 C          58.2739   95.0891   -1.1495 C.ar    1  UNL1        0.0175
      4 C          59.5796   95.5625   -1.7159 C.ar    1  UNL1        0.0718
      5 C          59.6038   96.3306   -3.0041 C.ar    1  UNL1        0.0730
      6 CL         60.9095   96.8040   -3.5707 Cl      1  UNL1       -0.0809
      7 C          58.3222   96.6252   -3.7258 C.ar    1  UNL1        0.0273
      8 N          60.8612   95.2678   -0.9942 N.am    1  UNL1       -0.2003
      9 C          61.2907   95.8576    0.3163 C.2     1  UNL1        0.2589
     10 O          60.5142   96.8457    1.1353 O.2     1  UNL1       -0.2691
     11 C          62.6332   95.2860    0.6642 C.ar    1  UNL1        0.0587
     12 C          63.5429   95.5024    1.8369 C.ar    1  UNL1        0.0047
     13 C          64.8528   94.7756    1.9141 C.ar    1  UNL1        0.0002
     14 C          65.2530   93.8325    0.8185 C.ar    1  UNL1        0.0002
     15 C          64.3432   93.6161   -0.3543 C.ar    1  UNL1        0.0047
     16 C          63.0333   94.3428   -0.4315 C.ar    1  UNL1        0.0587
     17 C          61.9382   94.3316   -1.4564 C.2     1  UNL1        0.2589
     18 O          61.9227   93.5257   -2.7214 O.2     1  UNL1       -0.2691
     19 C          54.4668   95.7602   -3.4680 C.2     1  UNL1        0.2685
     20 O          54.4801   94.7792   -2.3333 O.2     1  UNL1       -0.2681
     21 N          55.7350   96.4464   -3.8810 N.am    1  UNL1       -0.2791
     22 H          55.7263   97.0903   -4.6257 H       1  UNL1        0.1552
     23 N          51.9620   96.3127   -1.9122 N.pl3   1  UNL1       -0.3557
     24 C          51.9329   96.3311   -3.4118 C.ar    1  UNL1        0.0640
     25 C          50.6513   96.6257   -4.1335 C.ar    1  UNL1        0.0174
     26 C          50.6222   96.6441   -5.6331 C.ar    1  UNL1        0.0219
     27 C          51.8746   96.3678   -6.4110 C.ar    1  UNL1        0.0991
     28 N          53.1561   96.0732   -5.6894 N.ar    1  UNL1       -0.2380
     29 C          53.1852   96.0548   -4.1897 C.ar    1  UNL1        0.1475
     30 H          51.1400   96.4940   -1.4017 H       1  UNL1        0.1424
     31 H          52.8031   96.1193   -1.4386 H       1  UNL1        0.1424
@<TRIPOS>BOND
     1    23    24    1
     2    24    25   ar
     3    25    26   ar
     4    26    27   ar
     5    27    28   ar
     6    28    29   ar
     7    29    19    1
     8    19    20    2
     9    19    21   am
    10    21     1    1
    11     1     2   ar
    12     2     3   ar
    13     3     4   ar
    14     4     8    1
    15     8     9   am
    16     9    10    2
    17     9    11    1
    18    11    12   ar
    19    12    13   ar
    20    13    14   ar
    21    14    15   ar
    22    15    16   ar
    23    16    17    1
    24    17    18    2
    25     4     5   ar
    26     5     6    1
    27     5     7   ar
    28    29    24   ar
    29     7     1   ar
    30    17     8   am
    31    16    11   ar
    32    23    30    1
    33    23    31    1
    34    21    22    1
@<TRIPOS>MOLECULE
*****
 31 34 0 0 0
SMALL
GASTEIGER

@<TRIPOS>ATOM
      1 C          62.9431   86.6335   13.0401 C.ar    1  UNL1        0.0515
      2 C          63.9261   87.1817   14.0316 C.ar    1  UNL1        0.0160
      3 C          64.4636   88.5720   13.8646 C.ar    1  UNL1        0.0175
      4 C          64.0183   89.4142   12.7060 C.ar    1  UNL1        0.0718
      5 C          63.0353   88.8660   11.7144 C.ar    1  UNL1        0.0730
      6 CL         62.5899   89.7082   10.5558 Cl      1  UNL1       -0.0809
      7 C          62.4977   87.4756   11.8815 C.ar    1  UNL1        0.0273
      8 N          64.5558   90.8046   12.5390 N.am    1  UNL1       -0.2003
      9 C          64.4791   91.6357   11.2927 C.2     1  UNL1        0.2589
     10 O          63.8514   91.2225    9.9945 O.2     1  UNL1       -0.2691
     11 C          65.1404   92.9527   11.5723 C.ar    1  UNL1        0.0587
     12 C          65.3633   94.1654   10.7181 C.ar    1  UNL1        0.0047
     13 C          66.0715   95.3608   11.2830 C.ar    1  UNL1        0.0002
     14 C          66.5569   95.3436   12.7022 C.ar    1  UNL1        0.0002
     15 C          66.3341   94.1310   13.5565 C.ar    1  UNL1        0.0047
     16 C          65.6258   92.9355   12.9915 C.ar    1  UNL1        0.0587
     17 C          65.2645   91.6079   13.5889 C.2     1  UNL1        0.2589
     18 O          65.5601   91.1619   14.9903 O.2     1  UNL1       -0.2691
     19 C          63.2895   84.0604   12.9429 C.2     1  UNL1        0.2685
     20 O          64.7111   84.2681   12.5116 O.2     1  UNL1       -0.2681
     21 N          62.4055   85.2431   13.2071 N.am    1  UNL1       -0.2791
     22 H          61.4725   85.1068   13.4901 H       1  UNL1        0.1552
     23 N          64.0411   81.9162   10.9841 N.pl3   1  UNL1       -0.3557
     24 C          63.1277   81.5980   12.1305 C.ar    1  UNL1        0.0640
     25 C          62.5901   80.2076   12.2975 C.ar    1  UNL1        0.0174
     26 C          61.6767   79.8894   13.4440 C.ar    1  UNL1        0.0219
     27 C          61.3008   80.9615   14.4234 C.ar    1  UNL1        0.0991
     28 N          61.8384   82.3519   14.2564 N.ar    1  UNL1       -0.2380
     29 C          62.7519   82.6701   13.1099 C.ar    1  UNL1        0.1475
     30 H          64.2878   81.2125   10.3412 H       1  UNL1        0.1424
     31 H          64.3940   82.8288   10.8745 H       1  UNL1        0.1424
@<TRIPOS>BOND
     1    23    24    1
     2    24    25   ar
     3    25    26   ar
     4    26    27   ar
     5    27    28   ar
     6    28    29   ar
     7    29    19    1
     8    19    20    2
     9    19    21   am
    10    21     1    1
    11     1     2   ar
    12     2     3   ar
    13     3     4   ar
    14     4     8    1
    15     8     9   am
    16     9    10    2
    17     9    11    1
    18    11    12   ar
    19    12    13   ar
    20    13    14   ar
    21    14    15   ar
    22    15    16   ar
    23    16    17    1
    24    17    18    2
    25     4     5   ar
    26     5     6    1
    27     5     7   ar
    28    29    24   ar
    29     7     1   ar
    30    17     8   am
    31    16    11   ar
    32    23    30    1
    33    23    31    1
    34    21    22    1
@<TRIPOS>MOLECULE
*****
 31 34 0 0 0
SMALL
GASTEIGER

@<TRIPOS>ATOM
      1 C          62.8370   90.8302   11.0631 C.ar    1  UNL1        0.0515
      2 C          63.9928   91.6039   10.5015 C.ar    1  UNL1        0.0160
      3 C          65.0870   92.0821   11.4092 C.ar    1  UNL1        0.0175
      4 C          65.0255   91.7866   12.8785 C.ar    1  UNL1        0.0718
      5 C          63.8698   91.0129   13.4401 C.ar    1  UNL1        0.0730
      6 CL         63.8082   90.7174   14.9094 Cl      1  UNL1       -0.0809
      7 C          62.7755   90.5347   12.5324 C.ar    1  UNL1        0.0273
      8 N          66.1198   92.2649   13.7861 N.am    1  UNL1       -0.2003
      9 C          66.5918   93.6816   13.9278 C.2     1  UNL1        0.2589
     10 O          66.0523   94.8689   13.1867 O.2     1  UNL1       -0.2691
     11 C          67.6979   93.7026   14.9407 C.ar    1  UNL1        0.0587
     12 C          68.5397   94.8187   15.4846 C.ar    1  UNL1        0.0047
     13 C          69.5933   94.5309   16.5128 C.ar    1  UNL1        0.0002
     14 C          69.8050   93.1271   16.9971 C.ar    1  UNL1        0.0002
     15 C          68.9632   92.0111   16.4532 C.ar    1  UNL1        0.0047
     16 C          67.9097   92.2989   15.4250 C.ar    1  UNL1        0.0587
     17 C          66.9344   91.4103   14.7115 C.2     1  UNL1        0.2589
     18 O          66.7976   89.9274   14.8916 O.2     1  UNL1       -0.2691
     19 C          61.6783   88.9081    9.7544 C.2     1  UNL1        0.2685
     20 O          62.7082   87.9423   10.2610 O.2     1  UNL1       -0.2681
     21 N          61.7427   90.3520   10.1555 N.am    1  UNL1       -0.2791
     22 H          61.0667   90.9859    9.8230 H       1  UNL1        0.1552
     23 N          60.7948   86.0428    9.8503 N.pl3   1  UNL1       -0.3557
     24 C          60.1422   86.9972    8.8947 C.ar    1  UNL1        0.0640
     25 C          59.0479   86.5190    7.9870 C.ar    1  UNL1        0.0174
     26 C          58.3954   87.4735    7.0315 C.ar    1  UNL1        0.0219
     27 C          58.8371   88.9062    6.9835 C.ar    1  UNL1        0.0991
     28 N          59.9314   89.3844    7.8912 N.ar    1  UNL1       -0.2380
     29 C          60.5840   88.4299    8.8468 C.ar    1  UNL1        0.1475
     30 H          60.5049   85.1025    9.8817 H       1  UNL1        0.1424
     31 H          61.5130   86.3567   10.4460 H       1  UNL1        0.1424
@<TRIPOS>BOND
     1    23    24    1
     2    24    25   ar
     3    25    26   ar
     4    26    27   ar
     5    27    28   ar
     6    28    29   ar
     7    29    19    1
     8    19    20    2
     9    19    21   am
    10    21     1    1
    11     1     2   ar
    12     2     3   ar
    13     3     4   ar
    14     4     8    1
    15     8     9   am
    16     9    10    2
    17     9    11    1
    18    11    12   ar
    19    12    13   ar
    20    13    14   ar
    21    14    15   ar
    22    15    16   ar
    23    16    17    1
    24    17    18    2
    25     4     5   ar
    26     5     6    1
    27     5     7   ar
    28    29    24   ar
    29     7     1   ar
    30    17     8   am
    31    16    11   ar
    32    23    30    1
    33    23    31    1
    34    21    22    1
@<TRIPOS>MOLECULE
*****
 31 34 0 0 0
SMALL
GASTEIGER

@<TRIPOS>ATOM
      1 C          62.8355   90.8327   11.0660 C.ar    1  UNL1        0.0515
      2 C          63.9871   91.6127   10.5045 C.ar    1  UNL1        0.0160
      3 C          65.0850   92.0861   11.4103 C.ar    1  UNL1        0.0175
      4 C          65.0314   91.7793   12.8775 C.ar    1  UNL1        0.0718
      5 C          63.8798   90.9993   13.4391 C.ar    1  UNL1        0.0730
      6 CL         63.8262   90.6926   14.9065 Cl      1  UNL1       -0.0809
      7 C          62.7819   90.5260   12.5333 C.ar    1  UNL1        0.0273
      8 N          66.1294   92.2527   13.7833 N.am    1  UNL1       -0.2003
      9 C          66.9539   91.3918   14.6939 C.2     1  UNL1        0.2589
     10 O          66.8252   89.9064   14.8585 O.2     1  UNL1       -0.2691
     11 C          67.9297   92.2770   15.4109 C.ar    1  UNL1        0.0587
     12 C          68.9913   91.9829   16.4290 C.ar    1  UNL1        0.0047
     13 C          69.8314   93.0968   16.9797 C.ar    1  UNL1        0.0002
     14 C          69.6100   94.5048   16.5123 C.ar    1  UNL1        0.0002
     15 C          68.5485   94.7990   15.4942 C.ar    1  UNL1        0.0047
     16 C          67.7083   93.6850   14.9435 C.ar    1  UNL1        0.0587
     17 C          66.5957   93.6700   13.9376 C.2     1  UNL1        0.2589
     18 O          66.0458   94.8628   13.2132 O.2     1  UNL1       -0.2691
     19 C          61.6800   88.9207    9.7397 C.2     1  UNL1        0.2685
     20 O          62.7206   87.9553   10.2248 O.2     1  UNL1       -0.2681
     21 N          61.7375   90.3594   10.1602 N.am    1  UNL1       -0.2791
     22 H          61.0546   90.9930    9.8418 H       1  UNL1        0.1552
     23 N          60.7837   86.0595    9.8373 N.pl3   1  UNL1       -0.3557
     24 C          60.1339   87.0168    8.8827 C.ar    1  UNL1        0.0640
     25 C          59.0359   86.5435    7.9769 C.ar    1  UNL1        0.0174
     26 C          58.3861   87.5008    7.0223 C.ar    1  UNL1        0.0219
     27 C          58.8343   88.9315    6.9735 C.ar    1  UNL1        0.0991
     28 N          59.9322   89.4048    7.8792 N.ar    1  UNL1       -0.2380
     29 C          60.5820   88.4474    8.8339 C.ar    1  UNL1        0.1475
     30 H          60.4895   85.1205    9.8694 H       1  UNL1        0.1424
     31 H          61.5043   86.3702   10.4318 H       1  UNL1        0.1424
@<TRIPOS>BOND
     1    23    24    1
     2    24    25   ar
     3    25    26   ar
     4    26    27   ar
     5    27    28   ar
     6    28    29   ar
     7    29    19    1
     8    19    20    2
     9    19    21   am
    10    21     1    1
    11     1     2   ar
    12     2     3   ar
    13     3     4   ar
    14     4     8    1
    15     8     9   am
    16     9    10    2
    17     9    11    1
    18    11    12   ar
    19    12    13   ar
    20    13    14   ar
    21    14    15   ar
    22    15    16   ar
    23    16    17    1
    24    17    18    2
    25     4     5   ar
    26     5     6    1
    27     5     7   ar
    28    29    24   ar
    29     7     1   ar
    30    17     8   am
    31    16    11   ar
    32    23    30    1
    33    23    31    1
    34    21    22    1
