@<TRIPOS>MOLECULE
*****
 31 33 0 0 0
SMALL
GASTEIGER

@<TRIPOS>ATOM
      1 N          65.0882   92.2541   13.1684 N.am    1  UNL1       -0.2475
      2 C          65.4460   91.6899   14.5114 C.2     1  UNL1        0.2560
      3 O          66.4866   92.3645   15.3553 O.2     1  UNL1       -0.2695
      4 C          64.7633   90.4510   15.0105 C.ar    1  UNL1        0.0877
      5 C          65.0696   89.1223   14.3855 C.ar    1  UNL1        0.0107
      6 C          64.3870   87.8834   14.8846 C.ar    1  UNL1        0.0370
      7 C          63.3979   87.9732   16.0087 C.ar    1  UNL1        0.1367
      8 O          62.7152   86.7344   16.5078 O.3     1  UNL1       -0.5054
      9 C          63.0915   89.3019   16.6338 C.ar    1  UNL1        0.0733
     10 C          63.7742   90.5408   16.1346 C.ar    1  UNL1        0.1410
     11 O          63.4679   91.8696   16.7597 O.3     1  UNL1       -0.5053
     12 H          62.9066   85.9044   16.1174 H       1  UNL1        0.2922
     13 H          62.8500   91.9257   17.4619 H       1  UNL1        0.2922
     14 C          61.9666   90.2302   10.6368 C.ar    1  UNL1        0.0537
     15 C          63.0908   90.9792    9.9849 C.ar    1  UNL1        0.0058
     16 C          64.1313   91.6539   10.8287 C.ar    1  UNL1        0.0151
     17 C          64.0476   91.5795   12.3245 C.ar    1  UNL1        0.0546
     18 C          62.9234   90.8305   12.9764 C.ar    1  UNL1        0.0151
     19 C          61.8829   90.1558   12.1325 C.ar    1  UNL1        0.0058
     20 C          60.0587   87.4455    8.5498 C.3     1  UNL1        0.1152
     21 N          61.0993   88.1201    9.3937 N.am    1  UNL1       -0.2726
     22 C          62.3131   87.3592    9.8384 C.3     1  UNL1        0.1152
     23 C          60.9260   89.5556    9.7929 C.2     1  UNL1        0.2491
     24 O          59.7122   90.3164    9.3482 O.2     1  UNL1       -0.2699
     25 C          65.7709   93.4929   12.6693 C.3     1  UNL1        0.1628
     26 C          66.4962   93.4725   11.3565 C.ar    1  UNL1        0.1440
     27 C          66.3518   94.4789   10.2537 C.ar    1  UNL1        0.0384
     28 C          67.2596   94.0704    9.1315 C.ar    1  UNL1        0.0473
     29 C          67.9650   92.8115    9.5409 C.ar    1  UNL1        0.1787
     30 BR         68.9664   92.0550    8.7194 Br      1  UNL1       -0.0078
     31 O          67.4932   92.4419   10.9160 O.2     1  UNL1       -0.4495
@<TRIPOS>BOND
     1    20    21    1
     2    21    22    1
     3    21    23   am
     4    23    24    2
     5    23    14    1
     6    14    15   ar
     7    15    16   ar
     8    16    17   ar
     9    17     1    1
    10     1    25    1
    11    25    26    1
    12    26    27   ar
    13    27    28   ar
    14    28    29   ar
    15    29    30    1
    16    29    31   ar
    17     1     2   am
    18     2     3    2
    19     2     4    1
    20     4     5   ar
    21     5     6   ar
    22     6     7   ar
    23     7     8    1
    24     7     9   ar
    25     9    10   ar
    26    10    11    1
    27    17    18   ar
    28    18    19   ar
    29    19    14   ar
    30    31    26   ar
    31    10     4   ar
    32     8    12    1
    33    11    13    1
@<TRIPOS>MOLECULE
*****
 31 33 0 0 0
SMALL
GASTEIGER

@<TRIPOS>ATOM
      1 N          63.6829   90.2408   14.6497 N.am    1  UNL1       -0.2475
      2 C          64.7951   91.2437   14.5643 C.2     1  UNL1        0.2560
      3 O          65.4697   91.7238   15.8151 O.2     1  UNL1       -0.2695
      4 C          65.2327   91.7665   13.2282 C.ar    1  UNL1        0.0877
      5 C          64.2260   91.9649   12.1341 C.ar    1  UNL1        0.0107
      6 C          64.6635   92.4876   10.7980 C.ar    1  UNL1        0.0370
      7 C          66.1080   92.8120   10.5559 C.ar    1  UNL1        0.1367
      8 O          66.5455   93.3348    9.2198 O.3     1  UNL1       -0.5054
      9 C          67.1147   92.6136   11.6500 C.ar    1  UNL1        0.0733
     10 C          66.6771   92.0909   12.9862 C.ar    1  UNL1        0.1410
     11 O          67.6838   91.8925   14.0803 O.3     1  UNL1       -0.5053
     12 H          65.9166   93.4587    8.5364 H       1  UNL1        0.2922
     13 H          68.5861   92.0951   13.9291 H       1  UNL1        0.2922
     14 C          61.6592   88.8005   10.8974 C.ar    1  UNL1        0.0537
     15 C          62.9241   88.1448   11.3663 C.ar    1  UNL1        0.0058
     16 C          63.5987   88.6249   12.6171 C.ar    1  UNL1        0.0151
     17 C          63.0084   89.7607   13.3989 C.ar    1  UNL1        0.0546
     18 C          61.7434   90.4164   12.9300 C.ar    1  UNL1        0.0151
     19 C          61.0688   89.9363   11.6792 C.ar    1  UNL1        0.0058
     20 C          60.1423   86.3699    8.1513 C.3     1  UNL1        0.1152
     21 N          60.8168   86.8500    9.4021 N.am    1  UNL1       -0.2726
     22 C          61.3237   85.8597   10.4083 C.3     1  UNL1        0.1152
     23 C          60.9846   88.3203    9.6466 C.2     1  UNL1        0.2491
     24 O          60.4778   89.3106    8.6404 O.2     1  UNL1       -0.2699
     25 C          63.2453   89.7181   15.9858 C.3     1  UNL1        0.1628
     26 C          63.2727   88.2436   16.2599 C.ar    1  UNL1        0.1440
     27 C          62.7656   87.5676   17.4992 C.ar    1  UNL1        0.0384
     28 C          62.9914   86.0924   17.3480 C.ar    1  UNL1        0.0473
     29 C          63.6380   85.8567   16.0152 C.ar    1  UNL1        0.1787
     30 BR         64.0402   84.5252   15.4536 Br      1  UNL1       -0.0078
     31 O          63.8119   87.1862   15.3427 O.2     1  UNL1       -0.4495
@<TRIPOS>BOND
     1    20    21    1
     2    21    22    1
     3    21    23   am
     4    23    24    2
     5    23    14    1
     6    14    15   ar
     7    15    16   ar
     8    16    17   ar
     9    17     1    1
    10     1    25    1
    11    25    26    1
    12    26    27   ar
    13    27    28   ar
    14    28    29   ar
    15    29    30    1
    16    29    31   ar
    17     1     2   am
    18     2     3    2
    19     2     4    1
    20     4     5   ar
    21     5     6   ar
    22     6     7   ar
    23     7     8    1
    24     7     9   ar
    25     9    10   ar
    26    10    11    1
    27    17    18   ar
    28    18    19   ar
    29    19    14   ar
    30    31    26   ar
    31    10     4   ar
    32     8    12    1
    33    11    13    1
@<TRIPOS>MOLECULE
*****
 31 33 0 0 0
SMALL
GASTEIGER

@<TRIPOS>ATOM
      1 N          62.7459   86.7313   11.9389 N.am    1  UNL1       -0.2475
      2 C          61.4629   86.8869   11.1777 C.2     1  UNL1        0.2560
      3 O          60.9613   85.7661   10.3161 O.2     1  UNL1       -0.2695
      4 C          60.6813   88.1633   11.2781 C.ar    1  UNL1        0.0877
      5 C          59.6978   88.3546   12.3944 C.ar    1  UNL1        0.0107
      6 C          58.9162   89.6309   12.4948 C.ar    1  UNL1        0.0370
      7 C          59.1180   90.7159   11.4788 C.ar    1  UNL1        0.1367
      8 O          58.3364   91.9922   11.5792 O.3     1  UNL1       -0.5054
      9 C          60.1015   90.5246   10.3625 C.ar    1  UNL1        0.0733
     10 C          60.8832   89.2482   10.2622 C.ar    1  UNL1        0.1410
     11 O          61.8667   89.0568    9.1459 O.3     1  UNL1       -0.5053
     12 H          57.7221   92.1118   12.2765 H       1  UNL1        0.2922
     13 H          61.9928   89.7346    8.5113 H       1  UNL1        0.2922
     14 C          64.2505   90.0936   14.5237 C.ar    1  UNL1        0.0537
     15 C          63.6692   90.3885   13.1728 C.ar    1  UNL1        0.0058
     16 C          63.1677   89.2677   12.3112 C.ar    1  UNL1        0.0151
     17 C          63.2475   87.8521   12.8005 C.ar    1  UNL1        0.0546
     18 C          63.8288   87.5572   14.1515 C.ar    1  UNL1        0.0151
     19 C          64.3303   88.6780   15.0131 C.ar    1  UNL1        0.0058
     20 C          66.6341   92.8826   16.0369 C.3     1  UNL1        0.1152
     21 N          66.1326   91.7619   15.1753 N.am    1  UNL1       -0.2726
     22 C          67.0118   91.1886   14.1035 C.3     1  UNL1        0.1152
     23 C          64.7520   91.2144   15.3853 C.2     1  UNL1        0.2491
     24 O          63.8730   91.7877   16.4570 O.2     1  UNL1       -0.2699
     25 C          63.5275   85.4550   11.8386 C.3     1  UNL1        0.1628
     26 C          63.1105   84.2555   12.6369 C.ar    1  UNL1        0.1440
     27 C          62.6767   84.2593   14.0728 C.ar    1  UNL1        0.0384
     28 C          62.3523   82.8477   14.4629 C.ar    1  UNL1        0.0473
     29 C          62.5856   81.9714   13.2680 C.ar    1  UNL1        0.1787
     30 BR         62.3855   80.4859   13.2116 Br      1  UNL1       -0.0078
     31 O          63.0543   82.8414   12.1395 O.2     1  UNL1       -0.4495
@<TRIPOS>BOND
     1    20    21    1
     2    21    22    1
     3    21    23   am
     4    23    24    2
     5    23    14    1
     6    14    15   ar
     7    15    16   ar
     8    16    17   ar
     9    17     1    1
    10     1    25    1
    11    25    26    1
    12    26    27   ar
    13    27    28   ar
    14    28    29   ar
    15    29    30    1
    16    29    31   ar
    17     1     2   am
    18     2     3    2
    19     2     4    1
    20     4     5   ar
    21     5     6   ar
    22     6     7   ar
    23     7     8    1
    24     7     9   ar
    25     9    10   ar
    26    10    11    1
    27    17    18   ar
    28    18    19   ar
    29    19    14   ar
    30    31    26   ar
    31    10     4   ar
    32     8    12    1
    33    11    13    1
@<TRIPOS>MOLECULE
*****
 31 33 0 0 0
SMALL
GASTEIGER

@<TRIPOS>ATOM
      1 N          63.8686   84.8725   13.3328 N.am    1  UNL1       -0.2475
      2 C          64.3231   85.2771   14.7037 C.2     1  UNL1        0.2560
      3 O          65.1187   84.3215   15.5426 O.2     1  UNL1       -0.2695
      4 C          63.9822   86.6376   15.2358 C.ar    1  UNL1        0.0877
      5 C          64.5521   87.8624   14.5839 C.ar    1  UNL1        0.0107
      6 C          64.2112   89.2227   15.1160 C.ar    1  UNL1        0.0370
      7 C          63.3002   89.3583   16.3000 C.ar    1  UNL1        0.1367
      8 O          62.9593   90.7187   16.8321 O.3     1  UNL1       -0.5054
      9 C          62.7303   88.1335   16.9519 C.ar    1  UNL1        0.0733
     10 C          63.0712   86.7731   16.4198 C.ar    1  UNL1        0.1410
     11 O          62.5013   85.5483   17.0717 O.3     1  UNL1       -0.5053
     12 H          63.3153   91.4838   16.4248 H       1  UNL1        0.2922
     13 H          61.9322   85.6330   17.8113 H       1  UNL1        0.2922
     14 C          61.4818   87.7395   10.8161 C.ar    1  UNL1        0.0537
     15 C          62.6624   88.2324   11.5991 C.ar    1  UNL1        0.0058
     16 C          63.4580   87.2768   12.4380 C.ar    1  UNL1        0.0151
     17 C          63.0730   85.8281   12.4939 C.ar    1  UNL1        0.0546
     18 C          61.8924   85.3352   11.7109 C.ar    1  UNL1        0.0151
     19 C          61.0968   86.2908   10.8720 C.ar    1  UNL1        0.0058
     20 C          59.4504   89.2524    7.7608 C.3     1  UNL1        0.1152
     21 N          60.2460   88.2967    8.5997 N.am    1  UNL1       -0.2726
     22 C          60.6014   86.9426    8.0611 C.3     1  UNL1        0.1152
     23 C          60.6862   88.6951    9.9772 C.2     1  UNL1        0.2491
     24 O          60.3308   90.0492   10.5158 O.2     1  UNL1       -0.2699
     25 C          64.2096   83.5121   12.8007 C.3     1  UNL1        0.1628
     26 C          63.3829   82.3239   13.1944 C.ar    1  UNL1        0.1440
     27 C          63.8889   80.9269   13.4000 C.ar    1  UNL1        0.0384
     28 C          62.7239   80.0637   13.7842 C.ar    1  UNL1        0.0473
     29 C          61.4978   80.9273   13.8161 C.ar    1  UNL1        0.1787
     30 BR         60.1084   80.4737   14.1533 Br      1  UNL1       -0.0078
     31 O          61.9051   82.3242   13.4516 O.2     1  UNL1       -0.4495
@<TRIPOS>BOND
     1    20    21    1
     2    21    22    1
     3    21    23   am
     4    23    24    2
     5    23    14    1
     6    14    15   ar
     7    15    16   ar
     8    16    17   ar
     9    17     1    1
    10     1    25    1
    11    25    26    1
    12    26    27   ar
    13    27    28   ar
    14    28    29   ar
    15    29    30    1
    16    29    31   ar
    17     1     2   am
    18     2     3    2
    19     2     4    1
    20     4     5   ar
    21     5     6   ar
    22     6     7   ar
    23     7     8    1
    24     7     9   ar
    25     9    10   ar
    26    10    11    1
    27    17    18   ar
    28    18    19   ar
    29    19    14   ar
    30    31    26   ar
    31    10     4   ar
    32     8    12    1
    33    11    13    1
@<TRIPOS>MOLECULE
*****
 31 33 0 0 0
SMALL
GASTEIGER

@<TRIPOS>ATOM
      1 N          61.8457   88.0614   11.2924 N.am    1  UNL1       -0.2475
      2 C          61.3271   88.3194    9.9088 C.2     1  UNL1        0.2560
      3 O          60.8336   89.6859    9.5355 O.2     1  UNL1       -0.2695
      4 C          61.3018   87.2109    8.8985 C.ar    1  UNL1        0.0877
      5 C          62.5648   86.4763    8.5594 C.ar    1  UNL1        0.0107
      6 C          62.5396   85.3679    7.5491 C.ar    1  UNL1        0.0370
      7 C          61.2513   84.9940    6.8779 C.ar    1  UNL1        0.1367
      8 O          61.2260   83.8856    5.8676 O.3     1  UNL1       -0.5054
      9 C          59.9882   85.7287    7.2170 C.ar    1  UNL1        0.0733
     10 C          60.0135   86.8371    8.2273 C.ar    1  UNL1        0.1410
     11 O          58.7504   87.5718    8.5664 O.3     1  UNL1       -0.5053
     12 H          62.0150   83.4267    5.6558 H       1  UNL1        0.2922
     13 H          57.9457   87.3383    8.1471 H       1  UNL1        0.2922
     14 C          63.3260   83.9621   12.4124 C.ar    1  UNL1        0.0537
     15 C          63.8835   85.1741   13.0982 C.ar    1  UNL1        0.0058
     16 C          63.3901   86.5405   12.7248 C.ar    1  UNL1        0.0151
     17 C          62.3392   86.6950   11.6657 C.ar    1  UNL1        0.0546
     18 C          61.7817   85.4830   10.9800 C.ar    1  UNL1        0.0151
     19 C          62.2751   84.1166   11.3534 C.ar    1  UNL1        0.0058
     20 C          63.5874   80.4281   14.1992 C.3     1  UNL1        0.1152
     21 N          63.0940   81.7946   13.8258 N.am    1  UNL1       -0.2726
     22 C          61.8749   82.3599   14.4926 C.3     1  UNL1        0.1152
     23 C          63.8195   82.5957   12.7858 C.2     1  UNL1        0.2491
     24 O          65.0384   82.0304   12.1190 O.2     1  UNL1       -0.2699
     25 C          61.8710   89.1699   12.3027 C.3     1  UNL1        0.1628
     26 C          63.0198   90.1341   12.3296 C.ar    1  UNL1        0.1440
     27 C          63.9338   90.3842   13.4924 C.ar    1  UNL1        0.0384
     28 C          64.9351   91.4221   13.0800 C.ar    1  UNL1        0.0473
     29 C          64.6400   91.8134   11.6623 C.ar    1  UNL1        0.1787
     30 BR         65.3959   92.8235   10.8508 Br      1  UNL1       -0.0078
     31 O          63.4562   91.0174   11.1985 O.2     1  UNL1       -0.4495
@<TRIPOS>BOND
     1    20    21    1
     2    21    22    1
     3    21    23   am
     4    23    24    2
     5    23    14    1
     6    14    15   ar
     7    15    16   ar
     8    16    17   ar
     9    17     1    1
    10     1    25    1
    11    25    26    1
    12    26    27   ar
    13    27    28   ar
    14    28    29   ar
    15    29    30    1
    16    29    31   ar
    17     1     2   am
    18     2     3    2
    19     2     4    1
    20     4     5   ar
    21     5     6   ar
    22     6     7   ar
    23     7     8    1
    24     7     9   ar
    25     9    10   ar
    26    10    11    1
    27    17    18   ar
    28    18    19   ar
    29    19    14   ar
    30    31    26   ar
    31    10     4   ar
    32     8    12    1
    33    11    13    1
@<TRIPOS>MOLECULE
*****
 31 33 0 0 0
SMALL
GASTEIGER

@<TRIPOS>ATOM
      1 N          62.4262   88.7599   11.6706 N.am    1  UNL1       -0.2475
      2 C          62.0476   88.9411   10.2305 C.2     1  UNL1        0.2560
      3 O          61.8238   90.3190    9.6815 O.2     1  UNL1       -0.2695
      4 C          61.8929   87.7444    9.3394 C.ar    1  UNL1        0.0877
      5 C          63.0560   86.8257    9.1088 C.ar    1  UNL1        0.0107
      6 C          62.9013   85.6290    8.2177 C.ar    1  UNL1        0.0370
      7 C          61.5836   85.3511    7.5571 C.ar    1  UNL1        0.1367
      8 O          61.4289   84.1544    6.6661 O.3     1  UNL1       -0.5054
      9 C          60.4205   86.2698    7.7877 C.ar    1  UNL1        0.0733
     10 C          60.5752   87.4665    8.6788 C.ar    1  UNL1        0.1410
     11 O          59.4121   88.3853    8.9094 O.3     1  UNL1       -0.5053
     12 H          62.1554   83.5805    6.5221 H       1  UNL1        0.2922
     13 H          58.5890   88.2117    8.4968 H       1  UNL1        0.2922
     14 C          63.0977   84.6264   13.3176 C.ar    1  UNL1        0.0537
     15 C          62.0247   84.8615   12.2962 C.ar    1  UNL1        0.0058
     16 C          61.8009   86.2394   11.7471 C.ar    1  UNL1        0.0151
     17 C          62.6500   87.3821   12.2196 C.ar    1  UNL1        0.0546
     18 C          63.7230   87.1469   13.2410 C.ar    1  UNL1        0.0151
     19 C          63.9468   85.7690   13.7900 C.ar    1  UNL1        0.0058
     20 C          64.0956   80.7912   13.5314 C.3     1  UNL1        0.1152
     21 N          63.8718   82.1691   12.9823 N.am    1  UNL1       -0.2726
     22 C          64.1982   82.4675   11.5490 C.3     1  UNL1        0.1152
     23 C          63.3215   83.2485   13.8666 C.2     1  UNL1        0.2491
     24 O          62.9951   82.9501   15.2999 O.2     1  UNL1       -0.2699
     25 C          62.5809   89.9566   12.5616 C.3     1  UNL1        0.1628
     26 C          63.8463   90.7611   12.5240 C.ar    1  UNL1        0.1440
     27 C          64.2807   91.6698   11.4125 C.ar    1  UNL1        0.0384
     28 C          65.6024   92.2685   11.7929 C.ar    1  UNL1        0.0473
     29 C          65.9849   91.7298   13.1396 C.ar    1  UNL1        0.1787
     30 BR         67.2334   92.0640   13.9007 Br      1  UNL1       -0.0078
     31 O          64.8996   90.7982   13.5915 O.2     1  UNL1       -0.4495
@<TRIPOS>BOND
     1    20    21    1
     2    21    22    1
     3    21    23   am
     4    23    24    2
     5    23    14    1
     6    14    15   ar
     7    15    16   ar
     8    16    17   ar
     9    17     1    1
    10     1    25    1
    11    25    26    1
    12    26    27   ar
    13    27    28   ar
    14    28    29   ar
    15    29    30    1
    16    29    31   ar
    17     1     2   am
    18     2     3    2
    19     2     4    1
    20     4     5   ar
    21     5     6   ar
    22     6     7   ar
    23     7     8    1
    24     7     9   ar
    25     9    10   ar
    26    10    11    1
    27    17    18   ar
    28    18    19   ar
    29    19    14   ar
    30    31    26   ar
    31    10     4   ar
    32     8    12    1
    33    11    13    1
@<TRIPOS>MOLECULE
*****
 31 33 0 0 0
SMALL
GASTEIGER

@<TRIPOS>ATOM
      1 N          63.7233   85.0959   14.5216 N.am    1  UNL1       -0.2475
      2 C          64.0630   83.6353   14.5548 C.2     1  UNL1        0.2560
      3 O          64.6677   83.0337   15.7886 O.2     1  UNL1       -0.2695
      4 C          63.7979   82.7762   13.3540 C.ar    1  UNL1        0.0877
      5 C          64.4543   83.0956   12.0437 C.ar    1  UNL1        0.0107
      6 C          64.1893   82.2366   10.8429 C.ar    1  UNL1        0.0370
      7 C          63.2678   81.0580   10.9526 C.ar    1  UNL1        0.1367
      8 O          63.0028   80.1990    9.7519 O.3     1  UNL1       -0.5054
      9 C          62.6114   80.7386   12.2630 C.ar    1  UNL1        0.0733
     10 C          62.8765   81.5977   13.4637 C.ar    1  UNL1        0.1410
     11 O          62.2200   81.2783   14.7741 O.3     1  UNL1       -0.5053
     12 H          63.4128   80.3985    8.9333 H       1  UNL1        0.2922
     13 H          61.6444   80.5421   14.8426 H       1  UNL1        0.2922
     14 C          61.9091   86.9007   10.8201 C.ar    1  UNL1        0.0537
     15 C          61.5135   85.5200   11.2526 C.ar    1  UNL1        0.0058
     16 C          62.1182   84.9184   12.4864 C.ar    1  UNL1        0.0151
     17 C          63.1186   85.6975   13.2878 C.ar    1  UNL1        0.0546
     18 C          63.5142   87.0782   12.8553 C.ar    1  UNL1        0.0151
     19 C          62.9095   87.6798   11.6214 C.ar    1  UNL1        0.0058
     20 C          59.8638   89.3451    8.4555 C.3     1  UNL1        0.1152
     21 N          60.4685   88.7435    9.6893 N.am    1  UNL1       -0.2726
     22 C          60.2373   89.3832   11.0263 C.3     1  UNL1        0.1152
     23 C          61.3044   87.5023    9.5862 C.2     1  UNL1        0.2491
     24 O          61.5356   86.8627    8.2493 O.2     1  UNL1       -0.2699
     25 C          63.9884   85.9550   15.7224 C.3     1  UNL1        0.1628
     26 C          63.9385   87.4492   15.6013 C.ar    1  UNL1        0.1440
     27 C          63.0686   88.3703   16.4043 C.ar    1  UNL1        0.0384
     28 C          63.3421   89.7751   15.9553 C.ar    1  UNL1        0.0473
     29 C          64.3811   89.7223   14.8746 C.ar    1  UNL1        0.1787
     30 BR         64.9514   90.9001   14.1414 Br      1  UNL1       -0.0078
     31 O          64.7497   88.2848   14.6558 O.2     1  UNL1       -0.4495
@<TRIPOS>BOND
     1    20    21    1
     2    21    22    1
     3    21    23   am
     4    23    24    2
     5    23    14    1
     6    14    15   ar
     7    15    16   ar
     8    16    17   ar
     9    17     1    1
    10     1    25    1
    11    25    26    1
    12    26    27   ar
    13    27    28   ar
    14    28    29   ar
    15    29    30    1
    16    29    31   ar
    17     1     2   am
    18     2     3    2
    19     2     4    1
    20     4     5   ar
    21     5     6   ar
    22     6     7   ar
    23     7     8    1
    24     7     9   ar
    25     9    10   ar
    26    10    11    1
    27    17    18   ar
    28    18    19   ar
    29    19    14   ar
    30    31    26   ar
    31    10     4   ar
    32     8    12    1
    33    11    13    1
@<TRIPOS>MOLECULE
*****
 31 33 0 0 0
SMALL
GASTEIGER

@<TRIPOS>ATOM
      1 N          63.1887   95.3691   -0.8527 N.am    1  UNL1       -0.2475
      2 C          64.5030   95.4855   -1.5661 C.2     1  UNL1        0.2560
      3 O          65.7708   95.6469   -0.7810 O.2     1  UNL1       -0.2695
      4 C          64.5494   95.4405   -3.0648 C.ar    1  UNL1        0.0877
      5 C          64.6085   96.7160   -3.8520 C.ar    1  UNL1        0.0107
      6 C          64.6549   96.6711   -5.3505 C.ar    1  UNL1        0.0370
      7 C          64.6423   95.3506   -6.0620 C.ar    1  UNL1        0.1367
      8 O          64.6888   95.3056   -7.5606 O.3     1  UNL1       -0.5054
      9 C          64.5833   94.0751   -5.2749 C.ar    1  UNL1        0.0733
     10 C          64.5368   94.1201   -3.7762 C.ar    1  UNL1        0.1410
     11 O          64.4778   92.8446   -2.9891 O.3     1  UNL1       -0.5053
     12 H          64.7257   96.1024   -8.0523 H       1  UNL1        0.2922
     13 H          64.4699   92.0197   -3.4335 H       1  UNL1        0.2922
     14 C          59.3850   94.8849   -3.2081 C.ar    1  UNL1        0.0537
     15 C          59.9346   96.2554   -2.9444 C.ar    1  UNL1        0.0058
     16 C          61.2025   96.4168   -2.1593 C.ar    1  UNL1        0.0151
     17 C          61.9208   95.2077   -1.6378 C.ar    1  UNL1        0.0546
     18 C          61.3713   93.8371   -1.9015 C.ar    1  UNL1        0.0151
     19 C          60.1034   93.6757   -2.6866 C.ar    1  UNL1        0.0058
     20 C          55.5213   94.6846   -4.0919 C.3     1  UNL1        0.1152
     21 N          56.7891   94.8460   -3.3068 N.am    1  UNL1       -0.2726
     22 C          56.7290   95.1300   -1.8351 C.3     1  UNL1        0.1152
     23 C          58.1172   94.7234   -3.9932 C.2     1  UNL1        0.2491
     24 O          58.1773   94.4394   -5.4648 O.2     1  UNL1       -0.2699
     25 C          63.1423   95.4141    0.6459 C.3     1  UNL1        0.1628
     26 C          62.7462   94.1925    1.4210 C.ar    1  UNL1        0.1440
     27 C          61.3528   93.8270    1.8392 C.ar    1  UNL1        0.0384
     28 C          61.4194   92.5305    2.5907 C.ar    1  UNL1        0.0473
     29 C          62.8540   92.0948    2.6370 C.ar    1  UNL1        0.1787
     30 BR         63.3768   90.8504    3.2913 Br      1  UNL1       -0.0078
     31 O          63.6741   93.1219    1.9141 O.2     1  UNL1       -0.4495
@<TRIPOS>BOND
     1    20    21    1
     2    21    22    1
     3    21    23   am
     4    23    24    2
     5    23    14    1
     6    14    15   ar
     7    15    16   ar
     8    16    17   ar
     9    17     1    1
    10     1    25    1
    11    25    26    1
    12    26    27   ar
    13    27    28   ar
    14    28    29   ar
    15    29    30    1
    16    29    31   ar
    17     1     2   am
    18     2     3    2
    19     2     4    1
    20     4     5   ar
    21     5     6   ar
    22     6     7   ar
    23     7     8    1
    24     7     9   ar
    25     9    10   ar
    26    10    11    1
    27    17    18   ar
    28    18    19   ar
    29    19    14   ar
    30    31    26   ar
    31    10     4   ar
    32     8    12    1
    33    11    13    1
@<TRIPOS>MOLECULE
*****
 31 33 0 0 0
SMALL
GASTEIGER

@<TRIPOS>ATOM
      1 N          62.0914   94.8357   -0.6044 N.am    1  UNL1       -0.2475
      2 C          63.5409   94.6752   -0.9552 C.2     1  UNL1        0.2560
      3 O          64.5920   94.8526    0.1001 O.2     1  UNL1       -0.2695
      4 C          63.9393   94.3371   -2.3613 C.ar    1  UNL1        0.0877
      5 C          63.6701   92.9666   -2.9082 C.ar    1  UNL1        0.0107
      6 C          64.0685   92.6285   -4.3142 C.ar    1  UNL1        0.0370
      7 C          64.7361   93.6611   -5.1734 C.ar    1  UNL1        0.1367
      8 O          65.1345   93.3230   -6.5794 O.3     1  UNL1       -0.5054
      9 C          65.0054   95.0316   -4.6265 C.ar    1  UNL1        0.0733
     10 C          64.6069   95.3696   -3.2204 C.ar    1  UNL1        0.1410
     11 O          64.8762   96.7402   -2.6735 O.3     1  UNL1       -0.5053
     12 H          64.9663   92.4669   -6.9211 H       1  UNL1        0.2922
     13 H          65.2932   97.3852   -3.2102 H       1  UNL1        0.2922
     14 C          58.9379   94.3035   -3.7702 C.ar    1  UNL1        0.0537
     15 C          59.1839   93.2164   -2.7663 C.ar    1  UNL1        0.0058
     16 C          60.2350   93.3938   -1.7111 C.ar    1  UNL1        0.0151
     17 C          61.0402   94.6583   -1.6596 C.ar    1  UNL1        0.0546
     18 C          60.7943   95.7454   -2.6635 C.ar    1  UNL1        0.0151
     19 C          59.7431   95.5679   -3.7188 C.ar    1  UNL1        0.0058
     20 C          55.4338   94.4195   -5.6296 C.3     1  UNL1        0.1152
     21 N          56.4850   94.5969   -4.5744 N.am    1  UNL1       -0.2726
     22 C          56.1342   95.2453   -3.2679 C.3     1  UNL1        0.1152
     23 C          57.8868   94.1260   -4.8255 C.2     1  UNL1        0.2491
     24 O          58.2374   93.4777   -6.1318 O.2     1  UNL1       -0.2699
     25 C          61.6930   95.1737    0.8017 C.3     1  UNL1        0.1628
     26 C          61.3869   94.0774    1.7786 C.ar    1  UNL1        0.1440
     27 C          62.2895   92.9322    2.1300 C.ar    1  UNL1        0.0384
     28 C          61.5848   92.0808    3.1442 C.ar    1  UNL1        0.0473
     29 C          60.2466   92.6999    3.4196 C.ar    1  UNL1        0.1787
     30 BR         59.2123   92.1769    4.3718 Br      1  UNL1       -0.0078
     31 O          60.1242   93.9339    2.5756 O.2     1  UNL1       -0.4495
@<TRIPOS>BOND
     1    20    21    1
     2    21    22    1
     3    21    23   am
     4    23    24    2
     5    23    14    1
     6    14    15   ar
     7    15    16   ar
     8    16    17   ar
     9    17     1    1
    10     1    25    1
    11    25    26    1
    12    26    27   ar
    13    27    28   ar
    14    28    29   ar
    15    29    30    1
    16    29    31   ar
    17     1     2   am
    18     2     3    2
    19     2     4    1
    20     4     5   ar
    21     5     6   ar
    22     6     7   ar
    23     7     8    1
    24     7     9   ar
    25     9    10   ar
    26    10    11    1
    27    17    18   ar
    28    18    19   ar
    29    19    14   ar
    30    31    26   ar
    31    10     4   ar
    32     8    12    1
    33    11    13    1
