@<TRIPOS>MOLECULE
*****
 30 33 0 0 0
SMALL
GASTEIGER

@<TRIPOS>ATOM
      1 C          63.9180   89.8723   12.9991 C.ar    1  UNL1        0.0565
      2 C          63.1630   90.4953   11.8625 C.ar    1  UNL1        0.0445
      3 C          62.3366   89.6370   10.9514 C.ar    1  UNL1        0.1415
      4 F          61.5815   90.2600    9.8147 F       1  UNL1       -0.2041
      5 C          62.2651   88.1557   11.1767 C.ar    1  UNL1        0.0317
      6 C          63.0201   87.5328   12.3133 C.ar    1  UNL1        0.0273
      7 C          63.8466   88.3910   13.2244 C.ar    1  UNL1        0.0171
      8 C          62.9487   86.0515   12.5386 C.ar    1  UNL1        0.1108
      9 N          62.9901   85.3590   13.8685 N.ar    1  UNL1       -0.2383
     10 C          62.8903   83.8822   13.6255 C.ar    1  UNL1        0.0878
     11 C          62.8800   82.7095   14.5608 C.ar    1  UNL1        0.0196
     12 C          62.7666   81.3166   14.0159 C.ar    1  UNL1        0.0016
     13 C          62.6635   81.0964   12.5357 C.ar    1  UNL1        0.0006
     14 C          62.6738   82.2691   11.6004 C.ar    1  UNL1        0.0080
     15 C          62.7872   83.6619   12.1454 C.ar    1  UNL1        0.0485
     16 S          62.8233   85.0027   11.4736 S.2     1  UNL1       -0.0665
     17 C          64.2611   91.0342   15.2974 C.2     1  UNL1        0.2455
     18 O          62.9511   90.4795   15.7733 O.2     1  UNL1       -0.2730
     19 N          64.7446   90.7305   13.9103 N.am    1  UNL1       -0.2531
     20 N          64.4198   92.8818   17.1170 N.3     1  UNL1       -0.3135
     21 C          65.0875   91.8924   16.2087 C.3     1  UNL1        0.1521
     22 H          65.1274   93.3752   17.6613 H       1  UNL1        0.1193
     23 H          63.7867   92.3906   17.7482 H       1  UNL1        0.1193
     24 C          66.0545   91.2852   13.4344 C.3     1  UNL1        0.1263
     25 C          66.0877   92.5664   12.6550 C.ar    1  UNL1        0.0172
     26 C          65.8294   92.5523   11.1775 C.ar    1  UNL1        0.0005
     27 C          65.8627   93.8335   10.3981 C.ar    1  UNL1        0.0204
     28 C          66.1542   95.1287   11.0963 C.ar    1  UNL1        0.0989
     29 N          66.4125   95.1428   12.5738 N.ar    1  UNL1       -0.2426
     30 C          66.3792   93.8616   13.3531 C.ar    1  UNL1        0.0962
@<TRIPOS>BOND
     1    20    21    1
     2    21    17    1
     3    17    18    2
     4    17    19   am
     5    19    24    1
     6    24    25    1
     7    25    26   ar
     8    26    27   ar
     9    27    28   ar
    10    28    29   ar
    11    29    30   ar
    12    19     1    1
    13     1     2   ar
    14     2     3   ar
    15     3     4    1
    16     3     5   ar
    17     5     6   ar
    18     6     8    1
    19     8     9   ar
    20     9    10   ar
    21    10    11   ar
    22    11    12   ar
    23    12    13   ar
    24    13    14   ar
    25    14    15   ar
    26    15    16   ar
    27     6     7   ar
    28    30    25   ar
    29     7     1   ar
    30    16     8   ar
    31    15    10   ar
    32    20    22    1
    33    20    23    1
@<TRIPOS>MOLECULE
*****
 30 33 0 0 0
SMALL
GASTEIGER

@<TRIPOS>ATOM
      1 C          63.9028   89.9693   12.9621 C.ar    1  UNL1        0.0565
      2 C          62.9923   90.5801   11.9385 C.ar    1  UNL1        0.0445
      3 C          62.1171   89.7021   11.0940 C.ar    1  UNL1        0.1415
      4 F          61.2066   90.3129   10.0703 F       1  UNL1       -0.2041
      5 C          62.1524   88.2133   11.2732 C.ar    1  UNL1        0.0317
      6 C          63.0629   87.6025   12.2969 C.ar    1  UNL1        0.0273
      7 C          63.9381   88.4805   13.1413 C.ar    1  UNL1        0.0171
      8 C          63.0983   86.1136   12.4761 C.ar    1  UNL1        0.1108
      9 N          62.6795   85.0930   11.4597 N.ar    1  UNL1       -0.2383
     10 C          62.8810   83.7326   12.0586 C.ar    1  UNL1        0.0878
     11 C          62.6399   82.3534   11.5205 C.ar    1  UNL1        0.0196
     12 C          62.9421   81.1539   12.3689 C.ar    1  UNL1        0.0016
     13 C          63.4855   81.3337   13.7555 C.ar    1  UNL1        0.0006
     14 C          63.7265   82.7129   14.2936 C.ar    1  UNL1        0.0080
     15 C          63.4243   83.9124   13.4451 C.ar    1  UNL1        0.0485
     16 S          63.5586   85.3839   13.7031 S.2     1  UNL1       -0.0665
     17 C          64.3642   91.1954   15.2058 C.2     1  UNL1        0.2455
     18 O          63.0751   90.6654   15.7604 O.2     1  UNL1       -0.2730
     19 N          64.7780   90.8473   13.8066 N.am    1  UNL1       -0.2531
     20 N          64.6410   92.8783   17.1657 N.3     1  UNL1       -0.3135
     21 C          65.2393   92.0734   16.0502 C.3     1  UNL1        0.1521
     22 H          65.3747   93.4128   17.6308 H       1  UNL1        0.1193
     23 H          64.1988   92.2515   17.8379 H       1  UNL1        0.1193
     24 C          66.0670   91.3773   13.2520 C.3     1  UNL1        0.1263
     25 C          66.0606   92.5859   12.3635 C.ar    1  UNL1        0.0172
     26 C          66.2611   93.9508   12.9526 C.ar    1  UNL1        0.0005
     27 C          66.2547   95.1593   12.0642 C.ar    1  UNL1        0.0204
     28 C          66.0478   95.0030   10.5868 C.ar    1  UNL1        0.0989
     29 N          65.8474   93.6382    9.9977 N.ar    1  UNL1       -0.2426
     30 C          65.8538   92.4297   10.8861 C.ar    1  UNL1        0.0962
@<TRIPOS>BOND
     1    20    21    1
     2    21    17    1
     3    17    18    2
     4    17    19   am
     5    19    24    1
     6    24    25    1
     7    25    26   ar
     8    26    27   ar
     9    27    28   ar
    10    28    29   ar
    11    29    30   ar
    12    19     1    1
    13     1     2   ar
    14     2     3   ar
    15     3     4    1
    16     3     5   ar
    17     5     6   ar
    18     6     8    1
    19     8     9   ar
    20     9    10   ar
    21    10    11   ar
    22    11    12   ar
    23    12    13   ar
    24    13    14   ar
    25    14    15   ar
    26    15    16   ar
    27     6     7   ar
    28    30    25   ar
    29     7     1   ar
    30    16     8   ar
    31    15    10   ar
    32    20    22    1
    33    20    23    1
@<TRIPOS>MOLECULE
*****
 30 33 0 0 0
SMALL
GASTEIGER

@<TRIPOS>ATOM
      1 C          64.4175   89.0987   14.2256 C.ar    1  UNL1        0.0565
      2 C          64.8015   87.8057   14.8820 C.ar    1  UNL1        0.0445
      3 C          64.2976   86.5055   14.3293 C.ar    1  UNL1        0.1415
      4 F          64.6815   85.2125   14.9857 F       1  UNL1       -0.2041
      5 C          63.4097   86.4982   13.1203 C.ar    1  UNL1        0.0317
      6 C          63.0258   87.7911   12.4640 C.ar    1  UNL1        0.0273
      7 C          63.5297   89.0914   13.0166 C.ar    1  UNL1        0.0171
      8 C          62.1380   87.7839   11.2550 C.ar    1  UNL1        0.1108
      9 N          61.6458   88.9924   10.5152 N.ar    1  UNL1       -0.2383
     10 C          60.7901   88.5222    9.3765 C.ar    1  UNL1        0.0878
     11 C          60.0396   89.2654    8.3115 C.ar    1  UNL1        0.0196
     12 C          59.2523   88.5096    7.2825 C.ar    1  UNL1        0.0016
     13 C          59.2156   87.0105    7.3185 C.ar    1  UNL1        0.0006
     14 C          59.9661   86.2672    8.3835 C.ar    1  UNL1        0.0080
     15 C          60.7533   87.0231    9.4125 C.ar    1  UNL1        0.0485
     16 S          61.5864   86.5668   10.5734 S.2     1  UNL1       -0.0665
     17 C          64.2077   91.0540   15.9234 C.2     1  UNL1        0.2455
     18 O          62.9901   90.4087   16.5160 O.2     1  UNL1       -0.2730
     19 N          64.9215   90.3990   14.7782 N.am    1  UNL1       -0.2531
     20 N          63.7905   93.2448   17.2563 N.3     1  UNL1       -0.3135
     21 C          64.7116   92.3543   16.4761 C.3     1  UNL1        0.1521
     22 H          64.2957   94.0796   17.5535 H       1  UNL1        0.1193
     23 H          63.4481   92.7446   18.0766 H       1  UNL1        0.1193
     24 C          66.1390   91.0442   14.1857 C.3     1  UNL1        0.1263
     25 C          65.9900   92.1017   13.1323 C.ar    1  UNL1        0.0172
     26 C          65.2937   91.7827   11.8425 C.ar    1  UNL1        0.0005
     27 C          65.1447   92.8402   10.7893 C.ar    1  UNL1        0.0204
     28 C          65.6919   94.2167   11.0257 C.ar    1  UNL1        0.0989
     29 N          66.3881   94.5357   12.3155 N.ar    1  UNL1       -0.2426
     30 C          66.5372   93.4782   13.3687 C.ar    1  UNL1        0.0962
@<TRIPOS>BOND
     1    20    21    1
     2    21    17    1
     3    17    18    2
     4    17    19   am
     5    19    24    1
     6    24    25    1
     7    25    26   ar
     8    26    27   ar
     9    27    28   ar
    10    28    29   ar
    11    29    30   ar
    12    19     1    1
    13     1     2   ar
    14     2     3   ar
    15     3     4    1
    16     3     5   ar
    17     5     6   ar
    18     6     8    1
    19     8     9   ar
    20     9    10   ar
    21    10    11   ar
    22    11    12   ar
    23    12    13   ar
    24    13    14   ar
    25    14    15   ar
    26    15    16   ar
    27     6     7   ar
    28    30    25   ar
    29     7     1   ar
    30    16     8   ar
    31    15    10   ar
    32    20    22    1
    33    20    23    1
@<TRIPOS>MOLECULE
*****
 30 33 0 0 0
SMALL
GASTEIGER

@<TRIPOS>ATOM
      1 C          62.2127   86.3600   11.3958 C.ar    1  UNL1        0.0565
      2 C          60.8588   86.7171   10.8579 C.ar    1  UNL1        0.0445
      3 C          60.4061   88.1471   10.8553 C.ar    1  UNL1        0.1415
      4 F          59.0521   88.5042   10.3174 F       1  UNL1       -0.2041
      5 C          61.3073   89.2201   11.3907 C.ar    1  UNL1        0.0317
      6 C          62.6612   88.8630   11.9286 C.ar    1  UNL1        0.0273
      7 C          63.1139   87.4330   11.9312 C.ar    1  UNL1        0.0171
      8 C          63.5623   89.9360   12.4640 C.ar    1  UNL1        0.1108
      9 N          64.0642   91.1270   11.7026 N.ar    1  UNL1       -0.2383
     10 C          64.9319   91.9334   12.6228 C.ar    1  UNL1        0.0878
     11 C          65.6952   93.2089   12.4214 C.ar    1  UNL1        0.0196
     12 C          66.4928   93.7918   13.5500 C.ar    1  UNL1        0.0016
     13 C          66.5271   93.0993   14.8802 C.ar    1  UNL1        0.0006
     14 C          65.7639   91.8238   15.0816 C.ar    1  UNL1        0.0080
     15 C          64.9663   91.2409   13.9529 C.ar    1  UNL1        0.0485
     16 S          64.1198   90.0064   13.8547 S.2     1  UNL1       -0.0665
     17 C          63.2658   84.3311   10.1611 C.2     1  UNL1        0.2455
     18 O          63.4133   85.1624    8.9211 O.2     1  UNL1       -0.2730
     19 N          62.6655   84.9300   11.3984 N.am    1  UNL1       -0.2531
     20 N          64.9411   82.5029   10.9361 N.3     1  UNL1       -0.3135
     21 C          63.7186   82.9011   10.1636 C.3     1  UNL1        0.1521
     22 H          65.1009   81.5014   10.8271 H       1  UNL1        0.1193
     23 H          64.8052   82.7201   11.9234 H       1  UNL1        0.1193
     24 C          62.5180   84.0988   12.6383 C.3     1  UNL1        0.1263
     25 C          62.8533   84.6843   13.9780 C.ar    1  UNL1        0.0172
     26 C          64.1551   85.4019   14.1783 C.ar    1  UNL1        0.0005
     27 C          64.4904   85.9874   15.5180 C.ar    1  UNL1        0.0204
     28 C          63.5237   85.8552   16.6574 C.ar    1  UNL1        0.0989
     29 N          62.2219   85.1376   16.4571 N.ar    1  UNL1       -0.2426
     30 C          61.8867   84.5521   15.1174 C.ar    1  UNL1        0.0962
@<TRIPOS>BOND
     1    20    21    1
     2    21    17    1
     3    17    18    2
     4    17    19   am
     5    19    24    1
     6    24    25    1
     7    25    26   ar
     8    26    27   ar
     9    27    28   ar
    10    28    29   ar
    11    29    30   ar
    12    19     1    1
    13     1     2   ar
    14     2     3   ar
    15     3     4    1
    16     3     5   ar
    17     5     6   ar
    18     6     8    1
    19     8     9   ar
    20     9    10   ar
    21    10    11   ar
    22    11    12   ar
    23    12    13   ar
    24    13    14   ar
    25    14    15   ar
    26    15    16   ar
    27     6     7   ar
    28    30    25   ar
    29     7     1   ar
    30    16     8   ar
    31    15    10   ar
    32    20    22    1
    33    20    23    1
@<TRIPOS>MOLECULE
*****
 30 33 0 0 0
SMALL
GASTEIGER

@<TRIPOS>ATOM
      1 C          63.6173   86.4293   14.4093 C.ar    1  UNL1        0.0565
      2 C          63.2723   86.4847   15.8680 C.ar    1  UNL1        0.0445
      3 C          63.3550   87.7861   16.6092 C.ar    1  UNL1        0.1415
      4 F          63.0100   87.8417   18.0680 F       1  UNL1       -0.2041
      5 C          63.7826   89.0321   15.8917 C.ar    1  UNL1        0.0317
      6 C          64.1276   88.9766   14.4330 C.ar    1  UNL1        0.0273
      7 C          64.0449   87.6752   13.6918 C.ar    1  UNL1        0.0171
      8 C          64.5552   90.2225   13.7155 C.ar    1  UNL1        0.1108
      9 N          64.1674   90.6137   12.3203 N.ar    1  UNL1       -0.2383
     10 C          64.8182   91.9290   12.0098 C.ar    1  UNL1        0.0878
     11 C          64.7935   92.7970   10.7868 C.ar    1  UNL1        0.0196
     12 C          65.5589   94.0869   10.7671 C.ar    1  UNL1        0.0016
     13 C          66.3489   94.5087   11.9704 C.ar    1  UNL1        0.0006
     14 C          66.3736   93.6406   13.1934 C.ar    1  UNL1        0.0080
     15 C          65.6083   92.3507   13.2131 C.ar    1  UNL1        0.0485
     16 S          65.4457   91.2961   14.2673 S.2     1  UNL1       -0.0665
     17 C          64.6688   84.1490   13.7423 C.2     1  UNL1        0.2455
     18 O          65.8857   84.4717   14.5579 O.2     1  UNL1       -0.2730
     19 N          63.5346   85.1278   13.6680 N.am    1  UNL1       -0.2531
     20 N          65.0645   82.7611   11.5819 N.3     1  UNL1       -0.3135
     21 C          64.5862   82.8476   13.0010 C.3     1  UNL1        0.1521
     22 H          64.9347   81.8101   11.2368 H       1  UNL1        0.1193
     23 H          66.0539   83.0055   11.5411 H       1  UNL1        0.1193
     24 C          62.3177   84.8052   12.8525 C.3     1  UNL1        0.1263
     25 C          62.1156   85.4571   11.5167 C.ar    1  UNL1        0.0172
     26 C          62.8142   84.9159   10.3046 C.ar    1  UNL1        0.0005
     27 C          62.6121   85.5678    8.9689 C.ar    1  UNL1        0.0204
     28 C          61.7113   86.7609    8.8453 C.ar    1  UNL1        0.0989
     29 N          61.0127   87.3020   10.0573 N.ar    1  UNL1       -0.2426
     30 C          61.2149   86.6501   11.3930 C.ar    1  UNL1        0.0962
@<TRIPOS>BOND
     1    20    21    1
     2    21    17    1
     3    17    18    2
     4    17    19   am
     5    19    24    1
     6    24    25    1
     7    25    26   ar
     8    26    27   ar
     9    27    28   ar
    10    28    29   ar
    11    29    30   ar
    12    19     1    1
    13     1     2   ar
    14     2     3   ar
    15     3     4    1
    16     3     5   ar
    17     5     6   ar
    18     6     8    1
    19     8     9   ar
    20     9    10   ar
    21    10    11   ar
    22    11    12   ar
    23    12    13   ar
    24    13    14   ar
    25    14    15   ar
    26    15    16   ar
    27     6     7   ar
    28    30    25   ar
    29     7     1   ar
    30    16     8   ar
    31    15    10   ar
    32    20    22    1
    33    20    23    1
@<TRIPOS>MOLECULE
*****
 30 33 0 0 0
SMALL
GASTEIGER

@<TRIPOS>ATOM
      1 C          65.0551   91.3363   13.9660 C.ar    1  UNL1        0.0565
      2 C          64.5977   91.0497   15.3654 C.ar    1  UNL1        0.0445
      3 C          63.4098   90.1641   15.5996 C.ar    1  UNL1        0.1415
      4 F          62.9524   89.8774   16.9992 F       1  UNL1       -0.2041
      5 C          62.6794   89.5653   14.4343 C.ar    1  UNL1        0.0317
      6 C          63.1368   89.8519   13.0349 C.ar    1  UNL1        0.0273
      7 C          64.3247   90.7375   12.8007 C.ar    1  UNL1        0.0171
      8 C          62.4064   89.2531   11.8696 C.ar    1  UNL1        0.1108
      9 N          62.3934   87.8024   11.4883 N.ar    1  UNL1       -0.2383
     10 C          61.5397   87.6525   10.2641 C.ar    1  UNL1        0.0878
     11 C          61.1645   86.4549    9.4426 C.ar    1  UNL1        0.0196
     12 C          60.2747   86.6153    8.2458 C.ar    1  UNL1        0.0016
     13 C          59.7601   87.9733    7.8704 C.ar    1  UNL1        0.0006
     14 C          60.1353   89.1710    8.6919 C.ar    1  UNL1        0.0080
     15 C          61.0252   89.0106    9.8887 C.ar    1  UNL1        0.0485
     16 S          61.5608   89.9997   10.8810 S.2     1  UNL1       -0.0665
     17 C          67.5445   91.9277   14.4169 C.2     1  UNL1        0.2455
     18 O          67.6581   90.7479   15.3363 O.2     1  UNL1       -0.2730
     19 N          66.2430   92.2219   13.7317 N.am    1  UNL1       -0.2531
     20 N          70.0512   92.2122   13.7961 N.3     1  UNL1       -0.3135
     21 C          68.7323   92.8131   14.1827 C.3     1  UNL1        0.1521
     22 H          70.7413   92.9540   13.6782 H       1  UNL1        0.1193
     23 H          69.9481   91.7012   12.9194 H       1  UNL1        0.1193
     24 C          66.1293   93.4016   12.8124 C.3     1  UNL1        0.1263
     25 C          66.7836   93.3667   11.4630 C.ar    1  UNL1        0.0172
     26 C          67.4507   92.1111   10.9852 C.ar    1  UNL1        0.0005
     27 C          68.1050   92.0763    9.6359 C.ar    1  UNL1        0.0204
     28 C          68.0921   93.2971    8.7644 C.ar    1  UNL1        0.0989
     29 N          67.4249   94.5527    9.2421 N.ar    1  UNL1       -0.2426
     30 C          66.7707   94.5875   10.5915 C.ar    1  UNL1        0.0962
@<TRIPOS>BOND
     1    20    21    1
     2    21    17    1
     3    17    18    2
     4    17    19   am
     5    19    24    1
     6    24    25    1
     7    25    26   ar
     8    26    27   ar
     9    27    28   ar
    10    28    29   ar
    11    29    30   ar
    12    19     1    1
    13     1     2   ar
    14     2     3   ar
    15     3     4    1
    16     3     5   ar
    17     5     6   ar
    18     6     8    1
    19     8     9   ar
    20     9    10   ar
    21    10    11   ar
    22    11    12   ar
    23    12    13   ar
    24    13    14   ar
    25    14    15   ar
    26    15    16   ar
    27     6     7   ar
    28    30    25   ar
    29     7     1   ar
    30    16     8   ar
    31    15    10   ar
    32    20    22    1
    33    20    23    1
@<TRIPOS>MOLECULE
*****
 30 33 0 0 0
SMALL
GASTEIGER

@<TRIPOS>ATOM
      1 C          63.9176   90.2729   13.2049 C.ar    1  UNL1        0.0565
      2 C          63.8304   90.7764   14.6151 C.ar    1  UNL1        0.0445
      3 C          63.6742   89.8072   15.7492 C.ar    1  UNL1        0.1415
      4 F          63.5869   90.3106   17.1595 F       1  UNL1       -0.2041
      5 C          63.6052   88.3344   15.4730 C.ar    1  UNL1        0.0317
      6 C          63.6925   87.8309   14.0627 C.ar    1  UNL1        0.0273
      7 C          63.8487   88.8002   12.9287 C.ar    1  UNL1        0.0171
      8 C          63.6235   86.3582   13.7865 C.ar    1  UNL1        0.1108
      9 N          63.0126   85.7157   12.5765 N.ar    1  UNL1       -0.2383
     10 C          63.1649   84.2298   12.7140 C.ar    1  UNL1        0.0878
     11 C          62.7526   83.0924   11.8273 C.ar    1  UNL1        0.0196
     12 C          63.0454   81.6790   12.2356 C.ar    1  UNL1        0.0016
     13 C          63.7504   81.4032   13.5305 C.ar    1  UNL1        0.0006
     14 C          64.1627   82.5406   14.4172 C.ar    1  UNL1        0.0080
     15 C          63.8699   83.9539   14.0089 C.ar    1  UNL1        0.0485
     16 S          64.1533   85.2694   14.6717 S.2     1  UNL1       -0.0665
     17 C          65.2449   92.1790   12.0408 C.2     1  UNL1        0.2455
     18 O          66.2598   92.1466   13.1449 O.2     1  UNL1       -0.2730
     19 N          64.0739   91.2422   12.0707 N.am    1  UNL1       -0.2531
     20 N          65.6675   94.5971   11.1896 N.3     1  UNL1       -0.3135
     21 C          65.4012   93.1483   10.9067 C.3     1  UNL1        0.1521
     22 H          65.7449   95.1067   10.3095 H       1  UNL1        0.1193
     23 H          66.5387   94.6869   11.7123 H       1  UNL1        0.1193
     24 C          63.0590   91.2746   10.9667 C.3     1  UNL1        0.1263
     25 C          62.0834   90.1458   10.8113 C.ar    1  UNL1        0.0172
     26 C          62.4276   88.9709    9.9448 C.ar    1  UNL1        0.0005
     27 C          61.4521   87.8422    9.7894 C.ar    1  UNL1        0.0204
     28 C          60.1322   87.8884   10.5007 C.ar    1  UNL1        0.0989
     29 N          59.7880   89.0633   11.3673 N.ar    1  UNL1       -0.2426
     30 C          60.7636   90.1920   11.5226 C.ar    1  UNL1        0.0962
@<TRIPOS>BOND
     1    20    21    1
     2    21    17    1
     3    17    18    2
     4    17    19   am
     5    19    24    1
     6    24    25    1
     7    25    26   ar
     8    26    27   ar
     9    27    28   ar
    10    28    29   ar
    11    29    30   ar
    12    19     1    1
    13     1     2   ar
    14     2     3   ar
    15     3     4    1
    16     3     5   ar
    17     5     6   ar
    18     6     8    1
    19     8     9   ar
    20     9    10   ar
    21    10    11   ar
    22    11    12   ar
    23    12    13   ar
    24    13    14   ar
    25    14    15   ar
    26    15    16   ar
    27     6     7   ar
    28    30    25   ar
    29     7     1   ar
    30    16     8   ar
    31    15    10   ar
    32    20    22    1
    33    20    23    1
@<TRIPOS>MOLECULE
*****
 30 33 0 0 0
SMALL
GASTEIGER

@<TRIPOS>ATOM
      1 C          63.5576   85.0420   13.3318 C.ar    1  UNL1        0.0565
      2 C          64.2110   83.7884   12.8302 C.ar    1  UNL1        0.0445
      3 C          64.0337   83.3707   11.4005 C.ar    1  UNL1        0.1415
      4 F          64.6871   82.1171   10.8988 F       1  UNL1       -0.2041
      5 C          63.2031   84.2066   10.4724 C.ar    1  UNL1        0.0317
      6 C          62.5498   85.4602   10.9740 C.ar    1  UNL1        0.0273
      7 C          62.7270   85.8779   12.4036 C.ar    1  UNL1        0.0171
      8 C          61.7192   86.2961   10.0458 C.ar    1  UNL1        0.1108
      9 N          60.7701   85.7798    9.0053 N.ar    1  UNL1       -0.2383
     10 C          60.1562   86.9597    8.3117 C.ar    1  UNL1        0.0878
     11 C          59.1521   87.0608    7.2020 C.ar    1  UNL1        0.0196
     12 C          58.7176   88.4074    6.7042 C.ar    1  UNL1        0.0016
     13 C          59.2872   89.6529    7.3161 C.ar    1  UNL1        0.0006
     14 C          60.2913   89.5517    8.4258 C.ar    1  UNL1        0.0080
     15 C          60.7258   88.2051    8.9236 C.ar    1  UNL1        0.0485
     16 S          61.6918   87.7950    9.9953 S.2     1  UNL1       -0.0665
     17 C          62.9619   84.7694   15.8459 C.2     1  UNL1        0.2455
     18 O          62.0116   83.6613   15.5005 O.2     1  UNL1       -0.2730
     19 N          63.7349   85.4597   14.7615 N.am    1  UNL1       -0.2531
     20 N          62.1675   86.1416   17.9040 N.3     1  UNL1       -0.3135
     21 C          63.1391   85.1871   17.2756 C.3     1  UNL1        0.1521
     22 H          62.4381   86.3139   18.8723 H       1  UNL1        0.1193
     23 H          61.2308   85.7388   17.8793 H       1  UNL1        0.1193
     24 C          64.6851   86.5678   15.1068 C.3     1  UNL1        0.1263
     25 C          64.2447   87.9970   14.9907 C.ar    1  UNL1        0.0172
     26 C          64.4072   88.7286   13.6914 C.ar    1  UNL1        0.0005
     27 C          63.9668   90.1578   13.5753 C.ar    1  UNL1        0.0204
     28 C          63.3639   90.8553   14.7585 C.ar    1  UNL1        0.0989
     29 N          63.2014   90.1236   16.0578 N.ar    1  UNL1       -0.2426
     30 C          63.6418   88.6945   16.1739 C.ar    1  UNL1        0.0962
@<TRIPOS>BOND
     1    20    21    1
     2    21    17    1
     3    17    18    2
     4    17    19   am
     5    19    24    1
     6    24    25    1
     7    25    26   ar
     8    26    27   ar
     9    27    28   ar
    10    28    29   ar
    11    29    30   ar
    12    19     1    1
    13     1     2   ar
    14     2     3   ar
    15     3     4    1
    16     3     5   ar
    17     5     6   ar
    18     6     8    1
    19     8     9   ar
    20     9    10   ar
    21    10    11   ar
    22    11    12   ar
    23    12    13   ar
    24    13    14   ar
    25    14    15   ar
    26    15    16   ar
    27     6     7   ar
    28    30    25   ar
    29     7     1   ar
    30    16     8   ar
    31    15    10   ar
    32    20    22    1
    33    20    23    1
@<TRIPOS>MOLECULE
*****
 30 33 0 0 0
SMALL
GASTEIGER

@<TRIPOS>ATOM
      1 C          61.9998   86.8273   10.3092 C.ar    1  UNL1        0.0565
      2 C          60.7613   87.1526    9.5282 C.ar    1  UNL1        0.0445
      3 C          60.4060   88.5825    9.2468 C.ar    1  UNL1        0.1415
      4 F          59.1674   88.9078    8.4658 F       1  UNL1       -0.2041
      5 C          61.2894   89.6870    9.7465 C.ar    1  UNL1        0.0317
      6 C          62.5280   89.3617   10.5275 C.ar    1  UNL1        0.0273
      7 C          62.8832   87.9319   10.8089 C.ar    1  UNL1        0.0171
      8 C          63.4113   90.4663   11.0271 C.ar    1  UNL1        0.1108
      9 N          63.9716   90.5886   12.4131 N.ar    1  UNL1       -0.2383
     10 C          64.7960   91.8404   12.4711 C.ar    1  UNL1        0.0878
     11 C          65.5864   92.4713   13.5789 C.ar    1  UNL1        0.0196
     12 C          66.3260   93.7535   13.3365 C.ar    1  UNL1        0.0016
     13 C          66.2752   94.4049   11.9862 C.ar    1  UNL1        0.0006
     14 C          65.4848   93.7740   10.8784 C.ar    1  UNL1        0.0080
     15 C          64.7453   92.4918   11.1209 C.ar    1  UNL1        0.0485
     16 S          63.8894   91.6425   10.2285 S.2     1  UNL1       -0.0665
     17 C          63.1933   84.6267    9.6142 C.2     1  UNL1        0.2455
     18 O          63.6762   85.2860    8.3563 O.2     1  UNL1       -0.2730
     19 N          62.3551   85.3974   10.5906 N.am    1  UNL1       -0.2531
     20 N          64.8167   82.8690   10.6266 N.3     1  UNL1       -0.3135
     21 C          63.5487   83.1968    9.8955 C.3     1  UNL1        0.1521
     22 H          64.8978   81.8575   10.7300 H       1  UNL1        0.1193
     23 H          64.8000   83.3048   11.5487 H       1  UNL1        0.1193
     24 C          61.8723   84.7381   11.8485 C.3     1  UNL1        0.1263
     25 C          62.8028   84.5724   13.0133 C.ar    1  UNL1        0.0172
     26 C          62.8692   83.2618   13.7397 C.ar    1  UNL1        0.0005
     27 C          63.7997   83.0961   14.9044 C.ar    1  UNL1        0.0204
     28 C          64.6638   84.2412   15.3428 C.ar    1  UNL1        0.0989
     29 N          64.5974   85.5518   14.6164 N.ar    1  UNL1       -0.2426
     30 C          63.6669   85.7175   13.4517 C.ar    1  UNL1        0.0962
@<TRIPOS>BOND
     1    20    21    1
     2    21    17    1
     3    17    18    2
     4    17    19   am
     5    19    24    1
     6    24    25    1
     7    25    26   ar
     8    26    27   ar
     9    27    28   ar
    10    28    29   ar
    11    29    30   ar
    12    19     1    1
    13     1     2   ar
    14     2     3   ar
    15     3     4    1
    16     3     5   ar
    17     5     6   ar
    18     6     8    1
    19     8     9   ar
    20     9    10   ar
    21    10    11   ar
    22    11    12   ar
    23    12    13   ar
    24    13    14   ar
    25    14    15   ar
    26    15    16   ar
    27     6     7   ar
    28    30    25   ar
    29     7     1   ar
    30    16     8   ar
    31    15    10   ar
    32    20    22    1
    33    20    23    1
