@<TRIPOS>MOLECULE
*****
 29 33 0 0 0
SMALL
GASTEIGER

@<TRIPOS>ATOM
      1 C          61.5204   87.4618   10.0713 C.ar    1  UNL1        0.0564
      2 C          60.0914   87.6120   10.5015 C.ar    1  UNL1        0.0445
      3 C          59.7191   88.6515   11.5168 C.ar    1  UNL1        0.1415
      4 F          58.2900   88.8018   11.9470 F       1  UNL1       -0.2041
      5 C          60.7760   89.5408   12.1018 C.ar    1  UNL1        0.0317
      6 C          62.2050   89.3905   11.6717 C.ar    1  UNL1        0.0273
      7 C          62.5773   88.3510   10.6564 C.ar    1  UNL1        0.0171
      8 C          63.2619   90.2797   12.2568 C.ar    1  UNL1        0.1108
      9 N          63.9464   91.4151   11.5551 N.ar    1  UNL1       -0.2383
     10 C          64.9273   92.0268   12.5109 C.ar    1  UNL1        0.0878
     11 C          65.8817   93.1756   12.3714 C.ar    1  UNL1        0.0196
     12 C          66.7578   93.5670   13.5243 C.ar    1  UNL1        0.0016
     13 C          66.6796   92.8096   14.8167 C.ar    1  UNL1        0.0006
     14 C          65.7252   91.6609   14.9562 C.ar    1  UNL1        0.0080
     15 C          64.8491   91.2695   13.8033 C.ar    1  UNL1        0.0485
     16 S          63.8198   90.1897   13.6462 S.2     1  UNL1       -0.0665
     17 O          59.7527   86.9855    7.6947 O.2     1  UNL1       -0.2745
     18 C          61.0089   86.1841    7.8677 C.2     1  UNL1        0.2291
     19 N          61.8927   86.4222    9.0560 N.am    1  UNL1       -0.2542
     20 C          61.3811   85.1446    6.8524 C.3     1  UNL1        0.0771
     21 C          62.4208   84.4589    6.0164 C.3     1  UNL1        0.0096
     22 C          60.9861   84.0298    5.9297 C.3     1  UNL1        0.0096
     23 C          63.1489   85.6209    9.2290 C.3     1  UNL1        0.1263
     24 C          63.1988   84.5134   10.2395 C.ar    1  UNL1        0.0172
     25 C          63.9226   83.2390    9.9203 C.ar    1  UNL1        0.0005
     26 C          63.9725   82.1316   10.9307 C.ar    1  UNL1        0.0204
     27 C          63.2987   82.2986   12.2604 C.ar    1  UNL1        0.0989
     28 N          62.5749   83.5730   12.5796 N.ar    1  UNL1       -0.2426
     29 C          62.5250   84.6804   11.5691 C.ar    1  UNL1        0.0962
@<TRIPOS>BOND
     1    17    18    2
     2    18    20    1
     3    20    21    1
     4    21    22    1
     5    18    19   am
     6    19    23    1
     7    23    24    1
     8    24    25   ar
     9    25    26   ar
    10    26    27   ar
    11    27    28   ar
    12    28    29   ar
    13    19     1    1
    14     1     2   ar
    15     2     3   ar
    16     3     4    1
    17     3     5   ar
    18     5     6   ar
    19     6     8    1
    20     8     9   ar
    21     9    10   ar
    22    10    11   ar
    23    11    12   ar
    24    12    13   ar
    25    13    14   ar
    26    14    15   ar
    27    15    16   ar
    28     6     7   ar
    29    22    20    1
    30    29    24   ar
    31     7     1   ar
    32    16     8   ar
    33    15    10   ar
@<TRIPOS>MOLECULE
*****
 29 33 0 0 0
SMALL
GASTEIGER

@<TRIPOS>ATOM
      1 C          63.3080   89.7952   12.3113 C.ar    1  UNL1        0.0564
      2 C          62.5960   90.2632   11.0768 C.ar    1  UNL1        0.0445
      3 C          61.9343   89.2683   10.1701 C.ar    1  UNL1        0.1415
      4 F          61.2223   89.7363    8.9355 F       1  UNL1       -0.2041
      5 C          61.9845   87.8054   10.4978 C.ar    1  UNL1        0.0317
      6 C          62.6965   87.3374   11.7324 C.ar    1  UNL1        0.0273
      7 C          63.3582   88.3324   12.6391 C.ar    1  UNL1        0.0171
      8 C          62.7467   85.8746   12.0601 C.ar    1  UNL1        0.1108
      9 N          62.7715   85.2798   13.4370 N.ar    1  UNL1       -0.2383
     10 C          62.8210   83.7873   13.2964 C.ar    1  UNL1        0.0878
     11 C          62.8616   82.6843   14.3121 C.ar    1  UNL1        0.0196
     12 C          62.9080   81.2535   13.8641 C.ar    1  UNL1        0.0016
     13 C          62.9139   80.9258   12.4004 C.ar    1  UNL1        0.0006
     14 C          62.8734   82.0287   11.3847 C.ar    1  UNL1        0.0080
     15 C          62.8269   83.4595   11.8327 C.ar    1  UNL1        0.0485
     16 S          62.7810   84.7495   11.0686 S.2     1  UNL1       -0.0665
     17 O          63.6067   89.1932   15.2350 O.2     1  UNL1       -0.2745
     18 C          64.1191   90.4891   14.6800 C.2     1  UNL1        0.2291
     19 N          63.9697   90.7902   13.2181 N.am    1  UNL1       -0.2542
     20 C          64.7809   91.4840   15.5868 C.3     1  UNL1        0.0771
     21 C          65.9661   92.3331   15.9391 C.3     1  UNL1        0.0096
     22 C          64.7417   92.3580   16.8052 C.3     1  UNL1        0.0096
     23 C          64.4821   92.0861   12.6631 C.3     1  UNL1        0.1263
     24 C          65.8151   92.1332   11.9767 C.ar    1  UNL1        0.0172
     25 C          65.8969   92.4845   10.5207 C.ar    1  UNL1        0.0005
     26 C          67.2299   92.5316    9.8345 C.ar    1  UNL1        0.0204
     27 C          68.4809   92.2275   10.6041 C.ar    1  UNL1        0.0989
     28 N          68.3990   91.8762   12.0601 N.ar    1  UNL1       -0.2426
     29 C          67.0661   91.8291   12.7464 C.ar    1  UNL1        0.0962
@<TRIPOS>BOND
     1    17    18    2
     2    18    20    1
     3    20    21    1
     4    21    22    1
     5    18    19   am
     6    19    23    1
     7    23    24    1
     8    24    25   ar
     9    25    26   ar
    10    26    27   ar
    11    27    28   ar
    12    28    29   ar
    13    19     1    1
    14     1     2   ar
    15     2     3   ar
    16     3     4    1
    17     3     5   ar
    18     5     6   ar
    19     6     8    1
    20     8     9   ar
    21     9    10   ar
    22    10    11   ar
    23    11    12   ar
    24    12    13   ar
    25    13    14   ar
    26    14    15   ar
    27    15    16   ar
    28     6     7   ar
    29    22    20    1
    30    29    24   ar
    31     7     1   ar
    32    16     8   ar
    33    15    10   ar
@<TRIPOS>MOLECULE
*****
 29 33 0 0 0
SMALL
GASTEIGER

@<TRIPOS>ATOM
      1 C          63.0512   89.8594   12.1600 C.ar    1  UNL1        0.0564
      2 C          61.9130   90.4237   11.3625 C.ar    1  UNL1        0.0445
      3 C          60.9720   89.5031   10.6436 C.ar    1  UNL1        0.1415
      4 F          59.8337   90.0674    9.8461 F       1  UNL1       -0.2041
      5 C          61.1691   88.0182   10.7221 C.ar    1  UNL1        0.0317
      6 C          62.3073   87.4539   11.5196 C.ar    1  UNL1        0.0273
      7 C          63.2484   88.3745   12.2385 C.ar    1  UNL1        0.0171
      8 C          62.5045   85.9690   11.5981 C.ar    1  UNL1        0.1108
      9 N          62.3594   85.1241   12.8291 N.ar    1  UNL1       -0.2383
     10 C          62.6466   83.7012   12.4513 C.ar    1  UNL1        0.0878
     11 C          62.6561   82.4326   13.2515 C.ar    1  UNL1        0.0196
     12 C          62.9881   81.1293   12.5873 C.ar    1  UNL1        0.0016
     13 C          63.3107   81.0947   11.1228 C.ar    1  UNL1        0.0006
     14 C          63.3012   82.3633   10.3225 C.ar    1  UNL1        0.0080
     15 C          62.9692   83.6666   10.9868 C.ar    1  UNL1        0.0485
     16 S          62.8813   85.0681   10.4595 S.2     1  UNL1       -0.0665
     17 O          64.6974   91.8311   10.6100 O.2     1  UNL1       -0.2745
     18 C          64.8154   91.7658   12.1040 C.2     1  UNL1        0.2291
     19 N          63.9923   90.7800   12.8790 N.am    1  UNL1       -0.2542
     20 C          65.7565   92.6864   12.8229 C.3     1  UNL1        0.0771
     21 C          66.2941   94.0660   13.0630 C.3     1  UNL1        0.0096
     22 C          66.8489   92.9013   13.8281 C.3     1  UNL1        0.0096
     23 C          64.1103   90.7147   14.3729 C.3     1  UNL1        0.1263
     24 C          63.8803   89.4159   15.0874 C.ar    1  UNL1        0.0172
     25 C          64.5416   88.1624   14.5963 C.ar    1  UNL1        0.0005
     26 C          64.3116   86.8637   15.3107 C.ar    1  UNL1        0.0204
     27 C          63.4202   86.8186   16.5163 C.ar    1  UNL1        0.0989
     28 N          62.7589   88.0722   17.0075 N.ar    1  UNL1       -0.2426
     29 C          62.9890   89.3708   16.2930 C.ar    1  UNL1        0.0962
@<TRIPOS>BOND
     1    17    18    2
     2    18    20    1
     3    20    21    1
     4    21    22    1
     5    18    19   am
     6    19    23    1
     7    23    24    1
     8    24    25   ar
     9    25    26   ar
    10    26    27   ar
    11    27    28   ar
    12    28    29   ar
    13    19     1    1
    14     1     2   ar
    15     2     3   ar
    16     3     4    1
    17     3     5   ar
    18     5     6   ar
    19     6     8    1
    20     8     9   ar
    21     9    10   ar
    22    10    11   ar
    23    11    12   ar
    24    12    13   ar
    25    13    14   ar
    26    14    15   ar
    27    15    16   ar
    28     6     7   ar
    29    22    20    1
    30    29    24   ar
    31     7     1   ar
    32    16     8   ar
    33    15    10   ar
@<TRIPOS>MOLECULE
*****
 29 33 0 0 0
SMALL
GASTEIGER

@<TRIPOS>ATOM
      1 C          61.9806   86.9465   10.4911 C.ar    1  UNL1        0.0564
      2 C          60.7684   87.2640    9.6667 C.ar    1  UNL1        0.0445
      3 C          60.4515   88.6877    9.3165 C.ar    1  UNL1        0.1415
      4 F          59.2392   89.0052    8.4920 F       1  UNL1       -0.2041
      5 C          61.3468   89.7938    9.7906 C.ar    1  UNL1        0.0317
      6 C          62.5590   89.4763   10.6150 C.ar    1  UNL1        0.0273
      7 C          62.8759   88.0527   10.9653 C.ar    1  UNL1        0.0171
      8 C          63.4543   90.5825   11.0892 C.ar    1  UNL1        0.1108
      9 N          63.9131   91.7558   10.2750 N.ar    1  UNL1       -0.2383
     10 C          64.7903   92.6080   11.1434 C.ar    1  UNL1        0.0878
     11 C          65.5240   93.8893   10.8785 C.ar    1  UNL1        0.0196
     12 C          66.3410   94.5239   11.9646 C.ar    1  UNL1        0.0016
     13 C          66.4245   93.8773   13.3155 C.ar    1  UNL1        0.0006
     14 C          65.6908   92.5961   13.5803 C.ar    1  UNL1        0.0080
     15 C          64.8738   91.9614   12.4943 C.ar    1  UNL1        0.0485
     16 S          64.0481   90.7096   12.4608 S.2     1  UNL1       -0.0665
     17 O          63.6129   85.2681    8.6154 O.2     1  UNL1       -0.2745
     18 C          63.1137   84.6836    9.9036 C.2     1  UNL1        0.2291
     19 N          62.2975   85.5228   10.8414 N.am    1  UNL1       -0.2542
     20 C          63.4307   83.2599   10.2538 C.3     1  UNL1        0.0771
     21 C          64.4288   82.2075   10.6359 C.3     1  UNL1        0.0096
     22 C          62.9815   81.8465   10.4783 C.3     1  UNL1        0.0096
     23 C          61.7983   84.9384   12.1295 C.3     1  UNL1        0.1263
     24 C          62.7675   84.5876   13.2194 C.ar    1  UNL1        0.0172
     25 C          63.8311   85.5662   13.6207 C.ar    1  UNL1        0.0005
     26 C          64.8002   85.2154   14.7105 C.ar    1  UNL1        0.0204
     27 C          64.7057   83.8861   15.3991 C.ar    1  UNL1        0.0989
     28 N          63.6420   82.9076   14.9978 N.ar    1  UNL1       -0.2426
     29 C          62.6729   83.2584   13.9079 C.ar    1  UNL1        0.0962
@<TRIPOS>BOND
     1    17    18    2
     2    18    20    1
     3    20    21    1
     4    21    22    1
     5    18    19   am
     6    19    23    1
     7    23    24    1
     8    24    25   ar
     9    25    26   ar
    10    26    27   ar
    11    27    28   ar
    12    28    29   ar
    13    19     1    1
    14     1     2   ar
    15     2     3   ar
    16     3     4    1
    17     3     5   ar
    18     5     6   ar
    19     6     8    1
    20     8     9   ar
    21     9    10   ar
    22    10    11   ar
    23    11    12   ar
    24    12    13   ar
    25    13    14   ar
    26    14    15   ar
    27    15    16   ar
    28     6     7   ar
    29    22    20    1
    30    29    24   ar
    31     7     1   ar
    32    16     8   ar
    33    15    10   ar
@<TRIPOS>MOLECULE
*****
 29 33 0 0 0
SMALL
GASTEIGER

@<TRIPOS>ATOM
      1 C          62.1535   86.4473   11.3287 C.ar    1  UNL1        0.0564
      2 C          60.9648   86.8488   10.5066 C.ar    1  UNL1        0.0445
      3 C          60.6553   88.3011   10.2950 C.ar    1  UNL1        0.1415
      4 F          59.4665   88.7027    9.4730 F       1  UNL1       -0.2041
      5 C          61.5345   89.3520   10.9055 C.ar    1  UNL1        0.0317
      6 C          62.7232   88.9506   11.7275 C.ar    1  UNL1        0.0273
      7 C          63.0327   87.4982   11.9391 C.ar    1  UNL1        0.0171
      8 C          63.6024   90.0015   12.3379 C.ar    1  UNL1        0.1108
      9 N          64.1428   91.2137   11.6392 N.ar    1  UNL1       -0.2383
     10 C          64.9700   91.9861   12.6237 C.ar    1  UNL1        0.0878
     11 C          65.7460   93.2636   12.4987 C.ar    1  UNL1        0.0196
     12 C          66.4927   93.8063   13.6810 C.ar    1  UNL1        0.0016
     13 C          66.4635   93.0713   14.9883 C.ar    1  UNL1        0.0006
     14 C          65.6875   91.7938   15.1133 C.ar    1  UNL1        0.0080
     15 C          64.9407   91.2512   13.9310 C.ar    1  UNL1        0.0485
     16 S          64.0955   90.0246   13.7544 S.2     1  UNL1       -0.0665
     17 O          63.5628   84.8868    9.1889 O.2     1  UNL1       -0.2745
     18 C          63.1677   84.2146   10.4704 C.2     1  UNL1        0.2291
     19 N          62.4631   84.9949   11.5403 N.am    1  UNL1       -0.2542
     20 C          63.4773   82.7623   10.6820 C.3     1  UNL1        0.0771
     21 C          63.1981   81.3182   10.3875 C.3     1  UNL1        0.0096
     22 C          64.2927   81.6907   11.3430 C.3     1  UNL1        0.0096
     23 C          62.0680   84.3228   12.8217 C.3     1  UNL1        0.1263
     24 C          62.6068   84.8242   14.1288 C.ar    1  UNL1        0.0172
     25 C          64.0090   85.3508   14.2094 C.ar    1  UNL1        0.0005
     26 C          64.5478   85.8522   15.5164 C.ar    1  UNL1        0.0204
     27 C          63.6844   85.8270   16.7428 C.ar    1  UNL1        0.0989
     28 N          62.2822   85.3004   16.6621 N.ar    1  UNL1       -0.2426
     29 C          61.7434   84.7990   15.3551 C.ar    1  UNL1        0.0962
@<TRIPOS>BOND
     1    17    18    2
     2    18    20    1
     3    20    21    1
     4    21    22    1
     5    18    19   am
     6    19    23    1
     7    23    24    1
     8    24    25   ar
     9    25    26   ar
    10    26    27   ar
    11    27    28   ar
    12    28    29   ar
    13    19     1    1
    14     1     2   ar
    15     2     3   ar
    16     3     4    1
    17     3     5   ar
    18     5     6   ar
    19     6     8    1
    20     8     9   ar
    21     9    10   ar
    22    10    11   ar
    23    11    12   ar
    24    12    13   ar
    25    13    14   ar
    26    14    15   ar
    27    15    16   ar
    28     6     7   ar
    29    22    20    1
    30    29    24   ar
    31     7     1   ar
    32    16     8   ar
    33    15    10   ar
@<TRIPOS>MOLECULE
*****
 29 33 0 0 0
SMALL
GASTEIGER

@<TRIPOS>ATOM
      1 C          62.7851   89.1931   11.7596 C.ar    1  UNL1        0.0564
      2 C          63.1205   88.6887   13.1318 C.ar    1  UNL1        0.0445
      3 C          64.1205   89.4212   13.9764 C.ar    1  UNL1        0.1415
      4 F          64.4559   88.9168   15.3487 F       1  UNL1       -0.2041
      5 C          64.7851   90.6581   13.4488 C.ar    1  UNL1        0.0317
      6 C          64.4497   91.1624   12.0766 C.ar    1  UNL1        0.0273
      7 C          63.4497   90.4299   11.2320 C.ar    1  UNL1        0.0171
      8 C          65.1144   92.3993   11.5489 C.ar    1  UNL1        0.1108
      9 N          65.2234   93.7143   12.2623 N.ar    1  UNL1       -0.2383
     10 C          65.9630   94.6661   11.3695 C.ar    1  UNL1        0.0878
     11 C          66.3645   96.1006   11.5452 C.ar    1  UNL1        0.0196
     12 C          67.1142   96.8084   10.4557 C.ar    1  UNL1        0.0016
     13 C          67.4623   96.0816    9.1905 C.ar    1  UNL1        0.0006
     14 C          67.0609   94.6471    9.0149 C.ar    1  UNL1        0.0080
     15 C          66.3112   93.9393   10.1044 C.ar    1  UNL1        0.0485
     16 S          65.7867   92.5384   10.2153 S.2     1  UNL1       -0.0665
     17 O          61.6423   90.5018    9.3140 O.2     1  UNL1       -0.2745
     18 C          61.2136   89.1149    9.6921 C.2     1  UNL1        0.2291
     19 N          61.7851   88.4605   10.9149 N.am    1  UNL1       -0.2542
     20 C          60.2137   88.3825    8.8474 C.3     1  UNL1        0.0771
     21 C          59.3597   87.1746    8.5989 C.3     1  UNL1        0.0096
     22 C          59.3355   88.3218    7.6329 C.3     1  UNL1        0.0096
     23 C          61.3565   87.0737   11.2931 C.3     1  UNL1        0.1263
     24 C          62.2013   85.8960   10.9065 C.ar    1  UNL1        0.0172
     25 C          62.5490   85.6630    9.4661 C.ar    1  UNL1        0.0005
     26 C          63.3937   84.4853    9.0796 C.ar    1  UNL1        0.0204
     27 C          63.8907   83.5407   10.1334 C.ar    1  UNL1        0.0989
     28 N          63.5431   83.7737   11.5738 N.ar    1  UNL1       -0.2426
     29 C          62.6983   84.9514   11.9603 C.ar    1  UNL1        0.0962
@<TRIPOS>BOND
     1    17    18    2
     2    18    20    1
     3    20    21    1
     4    21    22    1
     5    18    19   am
     6    19    23    1
     7    23    24    1
     8    24    25   ar
     9    25    26   ar
    10    26    27   ar
    11    27    28   ar
    12    28    29   ar
    13    19     1    1
    14     1     2   ar
    15     2     3   ar
    16     3     4    1
    17     3     5   ar
    18     5     6   ar
    19     6     8    1
    20     8     9   ar
    21     9    10   ar
    22    10    11   ar
    23    11    12   ar
    24    12    13   ar
    25    13    14   ar
    26    14    15   ar
    27    15    16   ar
    28     6     7   ar
    29    22    20    1
    30    29    24   ar
    31     7     1   ar
    32    16     8   ar
    33    15    10   ar
@<TRIPOS>MOLECULE
*****
 29 33 0 0 0
SMALL
GASTEIGER

@<TRIPOS>ATOM
      1 C          62.2957   87.4814   11.3279 C.ar    1  UNL1        0.0564
      2 C          60.8964   87.9695   11.0961 C.ar    1  UNL1        0.0445
      3 C          60.5008   89.3483   11.5345 C.ar    1  UNL1        0.1415
      4 F          59.1014   89.8364   11.3026 F       1  UNL1       -0.2041
      5 C          61.5044   90.2391   12.2047 C.ar    1  UNL1        0.0317
      6 C          62.9036   89.7511   12.4366 C.ar    1  UNL1        0.0273
      7 C          63.2993   88.3722   11.9982 C.ar    1  UNL1        0.0171
      8 C          63.9072   90.6419   13.1069 C.ar    1  UNL1        0.1108
      9 N          64.3126   90.5841   14.5499 N.ar    1  UNL1       -0.2383
     10 C          65.3376   91.6534   14.7867 C.ar    1  UNL1        0.0878
     11 C          66.0926   92.0655   16.0155 C.ar    1  UNL1        0.0196
     12 C          67.0758   93.1962   15.9476 C.ar    1  UNL1        0.0016
     13 C          67.3040   93.9149   14.6509 C.ar    1  UNL1        0.0006
     14 C          66.5489   93.5028   13.4220 C.ar    1  UNL1        0.0080
     15 C          65.5657   92.3720   13.4900 C.ar    1  UNL1        0.0485
     16 S          64.6817   91.7469   12.4518 S.2     1  UNL1       -0.0665
     17 O          62.0078   85.1671   13.2150 O.2     1  UNL1       -0.2745
     18 C          62.5475   84.9454   11.8330 C.2     1  UNL1        0.2291
     19 N          62.6915   86.1025   10.8895 N.am    1  UNL1       -0.2542
     20 C          62.9432   83.5665   11.3947 C.3     1  UNL1        0.0771
     21 C          62.7341   82.0817   11.4315 C.3     1  UNL1        0.0096
     22 C          63.8377   82.6632   10.5986 C.3     1  UNL1        0.0096
     23 C          63.2311   85.8809    9.5077 C.3     1  UNL1        0.1263
     24 C          62.2997   85.5258    8.3867 C.ar    1  UNL1        0.0172
     25 C          62.7898   84.6926    7.2397 C.ar    1  UNL1        0.0005
     26 C          61.8584   84.3376    6.1189 C.ar    1  UNL1        0.0204
     27 C          60.4369   84.8156    6.1450 C.ar    1  UNL1        0.0989
     28 N          59.9467   85.6487    7.2920 N.ar    1  UNL1       -0.2426
     29 C          60.8782   86.0038    8.4129 C.ar    1  UNL1        0.0962
@<TRIPOS>BOND
     1    17    18    2
     2    18    20    1
     3    20    21    1
     4    21    22    1
     5    18    19   am
     6    19    23    1
     7    23    24    1
     8    24    25   ar
     9    25    26   ar
    10    26    27   ar
    11    27    28   ar
    12    28    29   ar
    13    19     1    1
    14     1     2   ar
    15     2     3   ar
    16     3     4    1
    17     3     5   ar
    18     5     6   ar
    19     6     8    1
    20     8     9   ar
    21     9    10   ar
    22    10    11   ar
    23    11    12   ar
    24    12    13   ar
    25    13    14   ar
    26    14    15   ar
    27    15    16   ar
    28     6     7   ar
    29    22    20    1
    30    29    24   ar
    31     7     1   ar
    32    16     8   ar
    33    15    10   ar
@<TRIPOS>MOLECULE
*****
 29 33 0 0 0
SMALL
GASTEIGER

@<TRIPOS>ATOM
      1 C          62.4398   87.9546   11.9184 C.ar    1  UNL1        0.0564
      2 C          61.4385   88.6626   11.0546 C.ar    1  UNL1        0.0445
      3 C          61.4913   90.1551   10.9143 C.ar    1  UNL1        0.1415
      4 F          60.4900   90.8631   10.0505 F       1  UNL1       -0.2041
      5 C          62.5454   90.9396   11.6379 C.ar    1  UNL1        0.0317
      6 C          63.5466   90.2316   12.5017 C.ar    1  UNL1        0.0273
      7 C          63.4939   88.7392   12.6419 C.ar    1  UNL1        0.0171
      8 C          64.6007   91.0161   13.2252 C.ar    1  UNL1        0.1108
      9 N          64.9962   92.4345   12.9390 N.ar    1  UNL1       -0.2383
     10 C          66.0843   92.8150   13.8989 C.ar    1  UNL1        0.0878
     11 C          66.8586   94.0860   14.0858 C.ar    1  UNL1        0.0196
     12 C          67.9099   94.1738   15.1521 C.ar    1  UNL1        0.0016
     13 C          68.1869   92.9906   16.0315 C.ar    1  UNL1        0.0006
     14 C          67.4125   91.7196   15.8446 C.ar    1  UNL1        0.0080
     15 C          66.3612   91.6318   14.7783 C.ar    1  UNL1        0.0485
     16 S          65.4443   90.5201   14.3619 S.2     1  UNL1       -0.0665
     17 O          64.2324   86.5686   13.8845 O.2     1  UNL1       -0.2745
     18 C          63.2834   85.7691   13.0417 C.2     1  UNL1        0.2291
     19 N          62.3871   86.4621   12.0587 N.am    1  UNL1       -0.2542
     20 C          63.2307   84.2766   13.1820 C.3     1  UNL1        0.0771
     21 C          62.6103   83.0493   13.7809 C.3     1  UNL1        0.0096
     22 C          63.7599   82.9189   12.8262 C.3     1  UNL1        0.0096
     23 C          61.4382   85.6626   11.2159 C.3     1  UNL1        0.1263
     24 C          61.7016   85.4885    9.7495 C.ar    1  UNL1        0.0172
     25 C          62.9963   84.8893    9.2860 C.ar    1  UNL1        0.0005
     26 C          63.2597   84.7152    7.8197 C.ar    1  UNL1        0.0204
     27 C          62.2285   85.1404    6.8167 C.ar    1  UNL1        0.0989
     28 N          60.9338   85.7396    7.2802 N.ar    1  UNL1       -0.2426
     29 C          60.6704   85.9136    8.7465 C.ar    1  UNL1        0.0962
@<TRIPOS>BOND
     1    17    18    2
     2    18    20    1
     3    20    21    1
     4    21    22    1
     5    18    19   am
     6    19    23    1
     7    23    24    1
     8    24    25   ar
     9    25    26   ar
    10    26    27   ar
    11    27    28   ar
    12    28    29   ar
    13    19     1    1
    14     1     2   ar
    15     2     3   ar
    16     3     4    1
    17     3     5   ar
    18     5     6   ar
    19     6     8    1
    20     8     9   ar
    21     9    10   ar
    22    10    11   ar
    23    11    12   ar
    24    12    13   ar
    25    13    14   ar
    26    14    15   ar
    27    15    16   ar
    28     6     7   ar
    29    22    20    1
    30    29    24   ar
    31     7     1   ar
    32    16     8   ar
    33    15    10   ar
@<TRIPOS>MOLECULE
*****
 29 33 0 0 0
SMALL
GASTEIGER

@<TRIPOS>ATOM
      1 C          62.0208   87.5723   11.1403 C.ar    1  UNL1        0.0564
      2 C          62.1528   86.2811   11.8922 C.ar    1  UNL1        0.0445
      3 C          63.0475   86.2009   13.0935 C.ar    1  UNL1        0.1415
      4 F          63.1795   84.9097   13.8455 F       1  UNL1       -0.2041
      5 C          63.8102   87.4119   13.5428 C.ar    1  UNL1        0.0317
      6 C          63.6783   88.7030   12.7908 C.ar    1  UNL1        0.0273
      7 C          62.7836   88.7832   11.5896 C.ar    1  UNL1        0.0171
      8 C          64.4410   89.9140   13.2401 C.ar    1  UNL1        0.1108
      9 N          65.1358   90.0791   14.5592 N.ar    1  UNL1       -0.2383
     10 C          65.7671   91.4396   14.5835 C.ar    1  UNL1        0.0878
     11 C          66.5799   92.1504   15.6247 C.ar    1  UNL1        0.0196
     12 C          67.0881   93.5369   15.3617 C.ar    1  UNL1        0.0016
     13 C          66.7835   94.2127   14.0576 C.ar    1  UNL1        0.0006
     14 C          65.9706   93.5018   13.0165 C.ar    1  UNL1        0.0080
     15 C          65.4624   92.1153   13.2795 C.ar    1  UNL1        0.0485
     16 S          64.6429   91.1724   12.4492 S.2     1  UNL1       -0.0665
     17 O          61.5071   90.2201    9.8269 O.2     1  UNL1       -0.2745
     18 C          60.8692   88.9765    9.2823 C.2     1  UNL1        0.2291
     19 N          61.1261   87.6525    9.9390 N.am    1  UNL1       -0.2542
     20 C          59.9745   89.0568    8.0810 C.3     1  UNL1        0.0771
     21 C          58.7786   88.5707    7.3172 C.3     1  UNL1        0.0096
     22 C          59.6208   89.6819    6.7642 C.3     1  UNL1        0.0096
     23 C          60.4883   86.4089    9.3944 C.3     1  UNL1        0.1263
     24 C          61.1109   85.6939    8.2320 C.ar    1  UNL1        0.0172
     25 C          62.5865   85.4248    8.2201 C.ar    1  UNL1        0.0005
     26 C          63.2091   84.7099    7.0577 C.ar    1  UNL1        0.0204
     27 C          62.3561   84.2641    5.9072 C.ar    1  UNL1        0.0989
     28 N          60.8805   84.5332    5.9191 N.ar    1  UNL1       -0.2426
     29 C          60.2579   85.2481    7.0815 C.ar    1  UNL1        0.0962
@<TRIPOS>BOND
     1    17    18    2
     2    18    20    1
     3    20    21    1
     4    21    22    1
     5    18    19   am
     6    19    23    1
     7    23    24    1
     8    24    25   ar
     9    25    26   ar
    10    26    27   ar
    11    27    28   ar
    12    28    29   ar
    13    19     1    1
    14     1     2   ar
    15     2     3   ar
    16     3     4    1
    17     3     5   ar
    18     5     6   ar
    19     6     8    1
    20     8     9   ar
    21     9    10   ar
    22    10    11   ar
    23    11    12   ar
    24    12    13   ar
    25    13    14   ar
    26    14    15   ar
    27    15    16   ar
    28     6     7   ar
    29    22    20    1
    30    29    24   ar
    31     7     1   ar
    32    16     8   ar
    33    15    10   ar
