@<TRIPOS>MOLECULE
*****
 42 45 0 0 0
SMALL
GASTEIGER

@<TRIPOS>ATOM
      1 C          62.8090   89.7091   12.9140 C.3     1  UNL1        0.1484
      2 O          61.5889   89.9529   13.7517 O.3     1  UNL1       -0.3810
      3 H          60.8230   89.5231   13.3402 H       1  UNL1        0.2105
      4 C          62.7046   88.9019   11.6539 C.3     1  UNL1        0.1245
      5 C          60.9833   87.7311   10.0995 C.2     1  UNL1        0.2492
      6 O          59.7298   87.7830    9.2773 O.2     1  UNL1       -0.2699
      7 N          61.4511   88.9537   10.8318 N.am    1  UNL1       -0.2735
      8 C          63.6710   82.3277   12.1819 C.ar    1  UNL1        0.2891
      9 N          64.0191   82.6261   10.7537 N.ar    1  UNL1       -0.1948
     10 C          63.3405   83.9074   10.3691 C.ar    1  UNL1        0.1202
     11 C          63.3223   84.6884    9.0887 C.ar    1  UNL1        0.0225
     12 C          62.5366   85.9630    8.9989 C.ar    1  UNL1        0.0063
     13 C          61.7691   86.4565   10.1894 C.ar    1  UNL1        0.0567
     14 C          61.7873   85.6754   11.4698 C.ar    1  UNL1        0.0437
     15 C          62.5730   84.4008   11.5597 C.ar    1  UNL1        0.1662
     16 O          62.7773   83.4245   12.6800 O.2     1  UNL1       -0.4239
     17 C          63.1518   80.3466   13.7805 C.3     1  UNL1        0.1123
     18 N          64.1352   81.1408   12.9731 N.pl3   1  UNL1       -0.2866
     19 H          65.0853   80.8832   12.9624 H       1  UNL1        0.1512
     20 C          60.6654   90.2284   10.7418 C.3     1  UNL1        0.0937
     21 C          59.3969   90.3845   11.5272 C.3     1  UNL1        0.0199
     22 C          58.8677   89.2355   12.3333 C.3     1  UNL1        0.0018
     23 C          58.6577   91.6896   11.5063 C.3     1  UNL1        0.0018
     24 C          64.1336   90.2724   13.3362 C.3     1  UNL1        0.1075
     25 N          64.7428   91.4101   12.5715 N.am    1  UNL1       -0.2695
     26 C          65.3878   92.5475   13.3064 C.2     1  UNL1        0.4020
     27 O          65.4237   92.5473   14.8060 O.2     1  UNL1       -0.2264
     28 H          64.7193   91.4102   11.5873 H       1  UNL1        0.1528
     29 O          65.9970   93.6852   12.5418 O.3     1  UNL1       -0.4291
     30 C          65.7283   93.8310   11.0733 C.3     1  UNL1        0.2447
     31 C          66.7983   93.4933   10.0779 C.ar    1  UNL1        0.0714
     32 C          67.1323   94.2762    8.8427 C.ar    1  UNL1        0.1053
     33 N          68.2627   93.5801    8.1442 N.ar    1  UNL1       -0.2350
     34 C          68.6273   92.3670    8.9477 C.ar    1  UNL1        0.1343
     35 S          67.7222   92.3134   10.1428 S.2     1  UNL1       -0.0652
     36 C          64.8489   89.6981   14.5229 C.3     1  UNL1        0.0485
     37 C          64.2579   88.5361   15.2648 C.ar    1  UNL1       -0.0204
     38 C          64.5355   87.1348   14.8075 C.ar    1  UNL1       -0.0042
     39 C          63.9445   85.9728   15.5494 C.ar    1  UNL1       -0.0003
     40 C          63.0758   86.2121   16.7486 C.ar    1  UNL1       -0.0000
     41 C          62.7982   87.6134   17.2059 C.ar    1  UNL1       -0.0003
     42 C          63.3892   88.7754   16.4640 C.ar    1  UNL1       -0.0042
@<TRIPOS>BOND
     1    17    18    1
     2    18     8    1
     3     8     9   ar
     4     9    10   ar
     5    10    11   ar
     6    11    12   ar
     7    12    13   ar
     8    13     5    1
     9     5     6    2
    10     5     7   am
    11     7    20    1
    12    20    21    1
    13    21    22    1
    14    21    23    1
    15     7     4    1
    16     4     1    1
    17     1     2    1
    18     1    24    1
    19    24    36    1
    20    36    37    1
    21    37    38   ar
    22    38    39   ar
    23    39    40   ar
    24    40    41   ar
    25    41    42   ar
    26    24    25    1
    27    25    26   am
    28    26    27    2
    29    26    29    1
    30    29    30    1
    31    30    31    1
    32    31    32   ar
    33    32    33   ar
    34    33    34   ar
    35    34    35   ar
    36    13    14   ar
    37    14    15   ar
    38    15    16   ar
    39    16     8   ar
    40    15    10   ar
    41    42    37   ar
    42    35    31   ar
    43    18    19    1
    44     2     3    1
    45    25    28    1
@<TRIPOS>MOLECULE
*****
 42 45 0 0 0
SMALL
GASTEIGER

@<TRIPOS>ATOM
      1 C          62.0211   89.3331   12.0287 C.3     1  UNL1        0.1484
      2 O          61.0207   89.9891   12.9336 O.3     1  UNL1       -0.3810
      3 H          61.4849   90.5386   13.5843 H       1  UNL1        0.2105
      4 C          63.4870   89.5848   12.2235 C.3     1  UNL1        0.1245
      5 C          64.1447   90.4083   14.5982 C.2     1  UNL1        0.2492
      6 O          64.6021   91.5065   15.5120 O.2     1  UNL1       -0.2699
      7 N          63.9445   90.6829   13.1373 N.am    1  UNL1       -0.2735
      8 C          63.8668   84.0776   15.3737 C.ar    1  UNL1        0.2891
      9 N          63.2549   84.8220   16.5233 N.ar    1  UNL1       -0.1948
     10 C          63.3730   86.2903   16.2402 C.ar    1  UNL1        0.1202
     11 C          62.9453   87.4999   17.0174 C.ar    1  UNL1        0.0225
     12 C          63.2026   88.8725   16.4701 C.ar    1  UNL1        0.0063
     13 C          63.8874   89.0356   15.1455 C.ar    1  UNL1        0.0567
     14 C          64.3151   87.8260   14.3684 C.ar    1  UNL1        0.0437
     15 C          64.0578   86.4534   14.9157 C.ar    1  UNL1        0.1662
     16 O          64.3630   85.0859   14.3802 O.2     1  UNL1       -0.4239
     17 C          63.0480   81.8548   14.3067 C.3     1  UNL1        0.1123
     18 N          63.9652   82.5867   15.2410 N.pl3   1  UNL1       -0.2866
     19 H          64.6317   82.0886   15.7672 H       1  UNL1        0.1512
     20 C          64.2017   92.0557   12.5899 C.3     1  UNL1        0.0937
     21 C          65.5356   92.3853   11.9883 C.3     1  UNL1        0.0199
     22 C          66.7553   92.4512   12.8588 C.3     1  UNL1        0.0018
     23 C          65.6497   92.6491   10.5160 C.3     1  UNL1        0.0018
     24 C          61.5557   88.4254   10.9289 C.3     1  UNL1        0.1075
     25 N          61.4668   88.9368    9.5215 N.am    1  UNL1       -0.2695
     26 C          60.3105   88.5416    8.6516 C.2     1  UNL1        0.4020
     27 O          59.2431   87.6350    9.1890 O.2     1  UNL1       -0.2264
     28 H          62.1673   89.5318    9.1688 H       1  UNL1        0.1528
     29 O          60.2216   89.0530    7.2442 O.3     1  UNL1       -0.4291
     30 C          58.8852   89.3869    6.6506 C.3     1  UNL1        0.2447
     31 C          58.7578   90.5262    5.6833 C.ar    1  UNL1        0.0714
     32 C          57.4748   91.1498    5.2194 C.ar    1  UNL1        0.1053
     33 N          57.8151   92.2510    4.2594 N.ar    1  UNL1       -0.2350
     34 C          59.3084   92.3081    4.1300 C.ar    1  UNL1        0.1343
     35 S          59.8911   91.2421    5.0100 S.2     1  UNL1       -0.0652
     36 C          61.1792   87.0064   11.2365 C.3     1  UNL1        0.0485
     37 C          62.0416   85.8795   10.7505 C.ar    1  UNL1       -0.0204
     38 C          62.4526   85.8172    9.3093 C.ar    1  UNL1       -0.0042
     39 C          63.3150   84.6902    8.8233 C.ar    1  UNL1       -0.0003
     40 C          63.7664   83.6255    9.7785 C.ar    1  UNL1       -0.0000
     41 C          63.3554   83.6878   11.2198 C.ar    1  UNL1       -0.0003
     42 C          62.4930   84.8147   11.7057 C.ar    1  UNL1       -0.0042
@<TRIPOS>BOND
     1    17    18    1
     2    18     8    1
     3     8     9   ar
     4     9    10   ar
     5    10    11   ar
     6    11    12   ar
     7    12    13   ar
     8    13     5    1
     9     5     6    2
    10     5     7   am
    11     7    20    1
    12    20    21    1
    13    21    22    1
    14    21    23    1
    15     7     4    1
    16     4     1    1
    17     1     2    1
    18     1    24    1
    19    24    36    1
    20    36    37    1
    21    37    38   ar
    22    38    39   ar
    23    39    40   ar
    24    40    41   ar
    25    41    42   ar
    26    24    25    1
    27    25    26   am
    28    26    27    2
    29    26    29    1
    30    29    30    1
    31    30    31    1
    32    31    32   ar
    33    32    33   ar
    34    33    34   ar
    35    34    35   ar
    36    13    14   ar
    37    14    15   ar
    38    15    16   ar
    39    16     8   ar
    40    15    10   ar
    41    42    37   ar
    42    35    31   ar
    43    18    19    1
    44     2     3    1
    45    25    28    1
@<TRIPOS>MOLECULE
*****
 42 45 0 0 0
SMALL
GASTEIGER

@<TRIPOS>ATOM
      1 C          63.4906   87.7783   13.0275 C.3     1  UNL1        0.1484
      2 O          63.1603   88.8798   12.0645 O.3     1  UNL1       -0.3810
      3 H          63.5050   89.7204   12.4041 H       1  UNL1        0.2105
      4 C          64.2467   88.0844   14.2865 C.3     1  UNL1        0.1245
      5 C          63.9041   90.3638   15.4850 C.2     1  UNL1        0.2492
      6 O          63.2600   91.1786   16.5673 O.2     1  UNL1       -0.2699
      7 N          63.6026   88.8991   15.3688 N.am    1  UNL1       -0.2735
      8 C          66.3921   93.3444   10.4172 C.ar    1  UNL1        0.2891
      9 N          67.4284   93.0065   11.4477 N.ar    1  UNL1       -0.1948
     10 C          66.7408   92.3141   12.5869 C.ar    1  UNL1        0.1202
     11 C          67.2565   91.7540   13.8793 C.ar    1  UNL1        0.0225
     12 C          66.3110   91.1039   14.8453 C.ar    1  UNL1        0.0063
     13 C          64.8497   91.0140   14.5189 C.ar    1  UNL1        0.0567
     14 C          64.3339   91.5741   13.2266 C.ar    1  UNL1        0.0437
     15 C          65.2795   92.2242   12.2606 C.ar    1  UNL1        0.1662
     16 O          65.0640   92.8610   10.9196 O.2     1  UNL1       -0.4239
     17 C          67.7042   95.0961    9.0173 C.3     1  UNL1        0.1123
     18 N          66.6403   94.0432    9.1133 N.pl3   1  UNL1       -0.2866
     19 H          66.1048   93.8107    8.3205 H       1  UNL1        0.1512
     20 C          62.6570   88.2490   16.3349 C.3     1  UNL1        0.0937
     21 C          63.0796   87.0221   17.0874 C.3     1  UNL1        0.0199
     22 C          63.8562   85.9449   16.3900 C.3     1  UNL1        0.0018
     23 C          62.7255   86.8725   18.5373 C.3     1  UNL1        0.0018
     24 C          63.0650   86.3707   12.7318 C.3     1  UNL1        0.1075
     25 N          61.8120   86.1151   11.9477 N.am    1  UNL1       -0.2695
     26 C          61.8133   86.2806   10.4569 C.2     1  UNL1        0.4020
     27 O          63.0675   86.7017    9.7501 O.2     1  UNL1       -0.2264
     28 H          60.9888   85.8386   12.4116 H       1  UNL1        0.1528
     29 O          60.5603   86.0250    9.6728 O.3     1  UNL1       -0.4291
     30 C          59.6567   87.1660    9.3099 C.3     1  UNL1        0.2447
     31 C          59.7614   88.4688   10.0458 C.ar    1  UNL1        0.0714
     32 C          60.2952   89.7555    9.4891 C.ar    1  UNL1        0.1053
     33 N          60.2145   90.7957   10.5668 N.ar    1  UNL1       -0.2350
     34 C          59.6308   90.1520   11.7896 C.ar    1  UNL1        0.1343
     35 S          59.3508   88.7139   11.4675 S.2     1  UNL1       -0.0652
     36 C          63.8924   85.2187   13.2200 C.3     1  UNL1        0.0485
     37 C          63.3431   83.8240   13.1642 C.ar    1  UNL1       -0.0204
     38 C          63.6098   82.9602   11.9673 C.ar    1  UNL1       -0.0042
     39 C          63.0605   81.5655   11.9115 C.ar    1  UNL1       -0.0003
     40 C          62.2445   81.0346   13.0527 C.ar    1  UNL1       -0.0000
     41 C          61.9778   81.8984   14.2496 C.ar    1  UNL1       -0.0003
     42 C          62.5271   83.2931   14.3054 C.ar    1  UNL1       -0.0042
@<TRIPOS>BOND
     1    17    18    1
     2    18     8    1
     3     8     9   ar
     4     9    10   ar
     5    10    11   ar
     6    11    12   ar
     7    12    13   ar
     8    13     5    1
     9     5     6    2
    10     5     7   am
    11     7    20    1
    12    20    21    1
    13    21    22    1
    14    21    23    1
    15     7     4    1
    16     4     1    1
    17     1     2    1
    18     1    24    1
    19    24    36    1
    20    36    37    1
    21    37    38   ar
    22    38    39   ar
    23    39    40   ar
    24    40    41   ar
    25    41    42   ar
    26    24    25    1
    27    25    26   am
    28    26    27    2
    29    26    29    1
    30    29    30    1
    31    30    31    1
    32    31    32   ar
    33    32    33   ar
    34    33    34   ar
    35    34    35   ar
    36    13    14   ar
    37    14    15   ar
    38    15    16   ar
    39    16     8   ar
    40    15    10   ar
    41    42    37   ar
    42    35    31   ar
    43    18    19    1
    44     2     3    1
    45    25    28    1
@<TRIPOS>MOLECULE
*****
 42 45 0 0 0
SMALL
GASTEIGER

@<TRIPOS>ATOM
      1 C          64.1385   85.3529   13.6868 C.3     1  UNL1        0.1484
      2 O          65.2822   84.3836   13.6366 O.3     1  UNL1       -0.3810
      3 H          66.1103   84.8504   13.8295 H       1  UNL1        0.2105
      4 C          64.3928   86.7974   14.0011 C.3     1  UNL1        0.1245
      5 C          63.8433   88.8316   15.5210 C.2     1  UNL1        0.2492
      6 O          63.4610   89.3860   16.8613 O.2     1  UNL1       -0.2699
      7 N          64.0105   87.3518   15.3414 N.am    1  UNL1       -0.2735
      8 C          66.1959   93.2712   11.5825 C.ar    1  UNL1        0.2891
      9 N          64.9537   92.6273   11.0417 N.ar    1  UNL1       -0.1948
     10 C          64.4884   91.6077   12.0387 C.ar    1  UNL1        0.1202
     11 C          63.3188   90.6686   12.0425 C.ar    1  UNL1        0.0225
     12 C          63.1038   89.7433   13.2032 C.ar    1  UNL1        0.0063
     13 C          64.0583   89.7570   14.3602 C.ar    1  UNL1        0.0567
     14 C          65.2279   90.6961   14.3564 C.ar    1  UNL1        0.0437
     15 C          65.4430   91.6215   13.1957 C.ar    1  UNL1        0.1662
     16 O          66.4982   92.6496   12.9137 O.2     1  UNL1       -0.4239
     17 C          67.5539   94.1202    9.5368 C.3     1  UNL1        0.1123
     18 N          66.9953   94.3477   10.9101 N.pl3   1  UNL1       -0.2866
     19 H          67.1534   95.2036   11.3702 H       1  UNL1        0.1512
     20 C          63.7954   86.4264   16.5023 C.3     1  UNL1        0.0937
     21 C          62.5346   86.5167   17.3098 C.3     1  UNL1        0.0199
     22 C          61.2100   86.2301   16.6669 C.3     1  UNL1        0.0018
     23 C          62.5984   86.8936   18.7603 C.3     1  UNL1        0.0018
     24 C          62.7405   84.8777   13.4225 C.3     1  UNL1        0.1075
     25 N          61.8751   85.6046   12.4362 N.am    1  UNL1       -0.2695
     26 C          62.1153   85.4414   10.9646 C.2     1  UNL1        0.4020
     27 O          63.2208   84.5513   10.4793 O.2     1  UNL1       -0.2264
     28 H          61.1495   86.1888   12.7547 H       1  UNL1        0.1528
     29 O          61.2499   86.1683    9.9782 O.3     1  UNL1       -0.4291
     30 C          61.5144   87.6121    9.6696 C.3     1  UNL1        0.2447
     31 C          60.7054   88.6827   10.3399 C.ar    1  UNL1        0.0714
     32 C          60.5579   90.1000    9.8713 C.ar    1  UNL1        0.1053
     33 N          59.6631   90.8172   10.8382 N.ar    1  UNL1       -0.2350
     34 C          59.2576   89.8432   11.9045 C.ar    1  UNL1        0.1343
     35 S          59.9017   88.5240   11.5965 S.2     1  UNL1       -0.0652
     36 C          62.2079   83.6757   14.1446 C.3     1  UNL1        0.0485
     37 C          62.3274   82.3147   13.5252 C.ar    1  UNL1       -0.0204
     38 C          62.9767   82.1562   12.1824 C.ar    1  UNL1       -0.0042
     39 C          63.0962   80.7953   11.5631 C.ar    1  UNL1       -0.0003
     40 C          62.5664   79.5929   12.2865 C.ar    1  UNL1       -0.0000
     41 C          61.9171   79.7514   13.6294 C.ar    1  UNL1       -0.0003
     42 C          61.7976   81.1123   14.2487 C.ar    1  UNL1       -0.0042
@<TRIPOS>BOND
     1    17    18    1
     2    18     8    1
     3     8     9   ar
     4     9    10   ar
     5    10    11   ar
     6    11    12   ar
     7    12    13   ar
     8    13     5    1
     9     5     6    2
    10     5     7   am
    11     7    20    1
    12    20    21    1
    13    21    22    1
    14    21    23    1
    15     7     4    1
    16     4     1    1
    17     1     2    1
    18     1    24    1
    19    24    36    1
    20    36    37    1
    21    37    38   ar
    22    38    39   ar
    23    39    40   ar
    24    40    41   ar
    25    41    42   ar
    26    24    25    1
    27    25    26   am
    28    26    27    2
    29    26    29    1
    30    29    30    1
    31    30    31    1
    32    31    32   ar
    33    32    33   ar
    34    33    34   ar
    35    34    35   ar
    36    13    14   ar
    37    14    15   ar
    38    15    16   ar
    39    16     8   ar
    40    15    10   ar
    41    42    37   ar
    42    35    31   ar
    43    18    19    1
    44     2     3    1
    45    25    28    1
@<TRIPOS>MOLECULE
*****
 42 45 0 0 0
SMALL
GASTEIGER

@<TRIPOS>ATOM
      1 C          62.4821   85.7250   12.2608 C.3     1  UNL1        0.1484
      2 O          61.3605   85.0288   12.9730 O.3     1  UNL1       -0.3810
      3 H          61.7081   84.2573   13.4471 H       1  UNL1        0.2105
      4 C          63.8801   85.1904   12.3601 C.3     1  UNL1        0.1245
      5 C          64.1422   84.0962   14.7019 C.2     1  UNL1        0.2492
      6 O          64.4257   82.8905   15.5480 O.2     1  UNL1       -0.2699
      7 N          64.1636   83.9847   13.2062 N.am    1  UNL1       -0.2735
      8 C          63.8182   90.3261   16.0586 C.ar    1  UNL1        0.2891
      9 N          63.0881   89.4835   17.0621 N.ar    1  UNL1       -0.1948
     10 C          63.2271   88.0477   16.6507 C.ar    1  UNL1        0.1202
     11 C          62.7161   86.7754   17.2589 C.ar    1  UNL1        0.0225
     12 C          63.0211   85.4583   16.6093 C.ar    1  UNL1        0.0063
     13 C          63.8372   85.4135   15.3515 C.ar    1  UNL1        0.0567
     14 C          64.3482   86.6858   14.7433 C.ar    1  UNL1        0.0437
     15 C          64.0432   88.0030   15.3929 C.ar    1  UNL1        0.1662
     16 O          64.4084   89.4110   15.0270 O.2     1  UNL1       -0.4239
     17 C          65.2197   92.4646   16.5194 C.3     1  UNL1        0.1123
     18 N          63.9371   91.8212   16.0826 N.pl3   1  UNL1       -0.2866
     19 H          63.1733   92.3801   15.8116 H       1  UNL1        0.1512
     20 C          64.4686   82.6675   12.5566 C.3     1  UNL1        0.0937
     21 C          63.3588   81.8441   11.9733 C.3     1  UNL1        0.0199
     22 C          62.2728   81.3127   12.8611 C.3     1  UNL1        0.0018
     23 C          63.3349   81.5521   10.5021 C.3     1  UNL1        0.0018
     24 C          62.2057   86.9559   11.4493 C.3     1  UNL1        0.1075
     25 N          62.9968   88.2072   11.6914 N.am    1  UNL1       -0.2695
     26 C          62.3038   89.4554   12.1514 C.2     1  UNL1        0.4020
     27 O          60.8197   89.4525   12.3692 O.2     1  UNL1       -0.2264
     28 H          63.9709   88.2091   11.5484 H       1  UNL1        0.1528
     29 O          63.0949   90.7067   12.3935 O.3     1  UNL1       -0.4291
     30 C          63.9171   91.2999   11.2881 C.3     1  UNL1        0.2447
     31 C          64.9793   92.3110   11.6031 C.ar    1  UNL1        0.0714
     32 C          65.6889   92.4646   12.9157 C.ar    1  UNL1        0.1053
     33 N          66.6667   93.5946   12.7847 N.ar    1  UNL1       -0.2350
     34 C          66.5614   94.1395   11.3911 C.ar    1  UNL1        0.1343
     35 S          65.5185   93.3462   10.6608 S.2     1  UNL1       -0.0652
     36 C          61.1383   86.9356   10.3957 C.3     1  UNL1        0.0485
     37 C          61.3694   86.2019    9.1079 C.ar    1  UNL1       -0.0204
     38 C          62.7153   85.6087    8.8138 C.ar    1  UNL1       -0.0042
     39 C          62.9465   84.8751    7.5261 C.ar    1  UNL1       -0.0003
     40 C          61.8317   84.7347    6.5324 C.ar    1  UNL1       -0.0000
     41 C          60.4858   85.3279    6.8264 C.ar    1  UNL1       -0.0003
     42 C          60.2546   86.0615    8.1142 C.ar    1  UNL1       -0.0042
@<TRIPOS>BOND
     1    17    18    1
     2    18     8    1
     3     8     9   ar
     4     9    10   ar
     5    10    11   ar
     6    11    12   ar
     7    12    13   ar
     8    13     5    1
     9     5     6    2
    10     5     7   am
    11     7    20    1
    12    20    21    1
    13    21    22    1
    14    21    23    1
    15     7     4    1
    16     4     1    1
    17     1     2    1
    18     1    24    1
    19    24    36    1
    20    36    37    1
    21    37    38   ar
    22    38    39   ar
    23    39    40   ar
    24    40    41   ar
    25    41    42   ar
    26    24    25    1
    27    25    26   am
    28    26    27    2
    29    26    29    1
    30    29    30    1
    31    30    31    1
    32    31    32   ar
    33    32    33   ar
    34    33    34   ar
    35    34    35   ar
    36    13    14   ar
    37    14    15   ar
    38    15    16   ar
    39    16     8   ar
    40    15    10   ar
    41    42    37   ar
    42    35    31   ar
    43    18    19    1
    44     2     3    1
    45    25    28    1
@<TRIPOS>MOLECULE
*****
 42 45 0 0 0
SMALL
GASTEIGER

@<TRIPOS>ATOM
      1 C          62.4437   86.4686   11.8932 C.3     1  UNL1        0.1484
      2 O          61.1826   85.6594   11.8261 O.3     1  UNL1       -0.3810
      3 H          60.5688   86.0688   11.1963 H       1  UNL1        0.2105
      4 C          62.5887   87.7026   11.0527 C.3     1  UNL1        0.1245
      5 C          61.3871   89.9986   10.8666 C.2     1  UNL1        0.2492
      6 O          60.1757   90.8052   10.5033 O.2     1  UNL1       -0.2699
      7 N          61.3773   88.5092   10.6894 N.am    1  UNL1       -0.2735
      8 C          65.9321   92.2570   14.7396 C.ar    1  UNL1        0.2891
      9 N          66.1693   92.6239   13.3046 N.ar    1  UNL1       -0.1948
     10 C          65.0510   92.0475   12.4878 C.ar    1  UNL1        0.1202
     11 C          64.7581   92.0876   11.0173 C.ar    1  UNL1        0.0225
     12 C          63.5368   91.4047   10.4769 C.ar    1  UNL1        0.0063
     13 C          62.6084   90.6816   11.4071 C.ar    1  UNL1        0.0567
     14 C          62.9013   90.6414   12.8776 C.ar    1  UNL1        0.0437
     15 C          64.1226   91.3243   13.4180 C.ar    1  UNL1        0.1662
     16 O          64.6672   91.4538   14.8096 O.2     1  UNL1       -0.4239
     17 C          68.2661   92.2838   15.8805 C.3     1  UNL1        0.1123
     18 N          66.8063   92.6281   15.9006 N.pl3   1  UNL1       -0.2866
     19 H          66.4220   93.0977   16.6759 H       1  UNL1        0.1512
     20 C          60.1559   87.8262   10.1490 C.3     1  UNL1        0.0937
     21 C          60.0828   87.4592    8.6964 C.3     1  UNL1        0.0199
     22 C          59.4182   88.3852    7.7214 C.3     1  UNL1        0.0018
     23 C          60.6744   86.1660    8.2189 C.3     1  UNL1        0.0018
     24 C          63.5600   86.0440   12.8007 C.3     1  UNL1        0.1075
     25 N          64.0569   84.6290   12.7671 N.am    1  UNL1       -0.2695
     26 C          63.9940   83.8422   11.4916 C.2     1  UNL1        0.4020
     27 O          63.4343   84.4702   10.2497 O.2     1  UNL1       -0.2264
     28 H          64.4242   84.2168   13.5822 H       1  UNL1        0.1528
     29 O          64.4909   82.4272   11.4580 O.3     1  UNL1       -0.4291
     30 C          64.4317   81.5819   12.6956 C.3     1  UNL1        0.2447
     31 C          63.1043   81.2068   13.2848 C.ar    1  UNL1        0.0714
     32 C          62.2346   82.0884   14.1314 C.ar    1  UNL1        0.1053
     33 N          61.0062   81.3108   14.5007 N.ar    1  UNL1       -0.2350
     34 C          61.1166   79.9485   13.8824 C.ar    1  UNL1        0.1343
     35 S          62.4133   79.8843   13.1310 S.2     1  UNL1       -0.0652
     36 C          64.1793   87.0342   13.7419 C.3     1  UNL1        0.0485
     37 C          63.7186   87.1033   15.1677 C.ar    1  UNL1       -0.0204
     38 C          63.5074   88.4354   15.8239 C.ar    1  UNL1       -0.0042
     39 C          63.0467   88.5045   17.2498 C.ar    1  UNL1       -0.0003
     40 C          62.7973   87.2414   18.0194 C.ar    1  UNL1       -0.0000
     41 C          63.0085   85.9092   17.3632 C.ar    1  UNL1       -0.0003
     42 C          63.4692   85.8402   15.9373 C.ar    1  UNL1       -0.0042
@<TRIPOS>BOND
     1    17    18    1
     2    18     8    1
     3     8     9   ar
     4     9    10   ar
     5    10    11   ar
     6    11    12   ar
     7    12    13   ar
     8    13     5    1
     9     5     6    2
    10     5     7   am
    11     7    20    1
    12    20    21    1
    13    21    22    1
    14    21    23    1
    15     7     4    1
    16     4     1    1
    17     1     2    1
    18     1    24    1
    19    24    36    1
    20    36    37    1
    21    37    38   ar
    22    38    39   ar
    23    39    40   ar
    24    40    41   ar
    25    41    42   ar
    26    24    25    1
    27    25    26   am
    28    26    27    2
    29    26    29    1
    30    29    30    1
    31    30    31    1
    32    31    32   ar
    33    32    33   ar
    34    33    34   ar
    35    34    35   ar
    36    13    14   ar
    37    14    15   ar
    38    15    16   ar
    39    16     8   ar
    40    15    10   ar
    41    42    37   ar
    42    35    31   ar
    43    18    19    1
    44     2     3    1
    45    25    28    1
@<TRIPOS>MOLECULE
*****
 42 45 0 0 0
SMALL
GASTEIGER

@<TRIPOS>ATOM
      1 C          62.5345   86.2466    9.6686 C.3     1  UNL1        0.1484
      2 O          62.8046   85.8044    8.2610 O.3     1  UNL1       -0.3810
      3 H          62.9375   86.5826    7.6975 H       1  UNL1        0.2105
      4 C          62.5056   87.7086   10.0030 C.3     1  UNL1        0.1245
      5 C          61.1420   89.8387   10.5974 C.2     1  UNL1        0.2492
      6 O          59.8331   90.5690   10.6555 O.2     1  UNL1       -0.2699
      7 N          61.1967   88.4389   10.0612 N.am    1  UNL1       -0.2735
      8 C          66.0464   91.8180   14.1732 C.ar    1  UNL1        0.2891
      9 N          66.0942   92.3718   12.7800 N.ar    1  UNL1       -0.1948
     10 C          64.9048   91.8473   12.0316 C.ar    1  UNL1        0.1202
     11 C          64.4336   92.0557   10.6229 C.ar    1  UNL1        0.0225
     12 C          63.1794   91.3862   10.1448 C.ar    1  UNL1        0.0063
     13 C          62.3963   90.5082   11.0755 C.ar    1  UNL1        0.0567
     14 C          62.8676   90.2998   12.4842 C.ar    1  UNL1        0.0437
     15 C          64.1218   90.9694   12.9622 C.ar    1  UNL1        0.1662
     16 O          64.8273   90.9513   14.2858 O.2     1  UNL1       -0.4239
     17 C          67.6772   93.4379   15.3841 C.3     1  UNL1        0.1123
     18 N          67.0426   92.0843   15.2626 N.pl3   1  UNL1       -0.2866
     19 H          67.2799   91.3705   15.8978 H       1  UNL1        0.1512
     20 C          59.9424   87.7693    9.5831 C.3     1  UNL1        0.0937
     21 C          59.6409   87.7021    8.1152 C.3     1  UNL1        0.0199
     22 C          59.4550   86.3716    7.4479 C.3     1  UNL1        0.0018
     23 C          59.5253   88.9654    7.3146 C.3     1  UNL1        0.0018
     24 C          62.2934   85.2268   10.7419 C.3     1  UNL1        0.1075
     25 N          62.3310   83.7646   10.4092 N.am    1  UNL1       -0.2695
     26 C          63.6428   83.0384   10.3674 C.2     1  UNL1        0.4020
     27 O          64.9170   83.7744   10.6583 O.2     1  UNL1       -0.2264
     28 H          61.4946   83.2815   10.2183 H       1  UNL1        0.1528
     29 O          63.6804   81.5762   10.0348 O.3     1  UNL1       -0.4291
     30 C          63.1108   80.5739   10.9944 C.3     1  UNL1        0.2447
     31 C          62.9110   80.9436   12.4343 C.ar    1  UNL1        0.0714
     32 C          63.9901   81.0813   13.4671 C.ar    1  UNL1        0.1053
     33 N          63.3431   81.4633   14.7654 N.ar    1  UNL1       -0.2350
     34 C          61.8641   81.5617   14.5350 C.ar    1  UNL1        0.1343
     35 S          61.5971   81.2405   13.0942 S.2     1  UNL1       -0.0652
     36 C          62.0146   85.6692   12.1478 C.3     1  UNL1        0.0485
     37 C          63.1416   85.8069   13.1281 C.ar    1  UNL1       -0.0204
     38 C          63.8673   84.5870   13.6127 C.ar    1  UNL1       -0.0042
     39 C          64.9943   84.7247   14.5931 C.ar    1  UNL1       -0.0003
     40 C          65.3955   86.0823   15.0887 C.ar    1  UNL1       -0.0000
     41 C          64.6697   87.3023   14.6041 C.ar    1  UNL1       -0.0003
     42 C          63.5428   87.1646   13.6238 C.ar    1  UNL1       -0.0042
@<TRIPOS>BOND
     1    17    18    1
     2    18     8    1
     3     8     9   ar
     4     9    10   ar
     5    10    11   ar
     6    11    12   ar
     7    12    13   ar
     8    13     5    1
     9     5     6    2
    10     5     7   am
    11     7    20    1
    12    20    21    1
    13    21    22    1
    14    21    23    1
    15     7     4    1
    16     4     1    1
    17     1     2    1
    18     1    24    1
    19    24    36    1
    20    36    37    1
    21    37    38   ar
    22    38    39   ar
    23    39    40   ar
    24    40    41   ar
    25    41    42   ar
    26    24    25    1
    27    25    26   am
    28    26    27    2
    29    26    29    1
    30    29    30    1
    31    30    31    1
    32    31    32   ar
    33    32    33   ar
    34    33    34   ar
    35    34    35   ar
    36    13    14   ar
    37    14    15   ar
    38    15    16   ar
    39    16     8   ar
    40    15    10   ar
    41    42    37   ar
    42    35    31   ar
    43    18    19    1
    44     2     3    1
    45    25    28    1
@<TRIPOS>MOLECULE
*****
 42 45 0 0 0
SMALL
GASTEIGER

@<TRIPOS>ATOM
      1 C          63.1215   90.8921   10.8212 C.3     1  UNL1        0.1484
      2 O          63.0011   91.9514    9.7660 O.3     1  UNL1       -0.3810
      3 H          63.8282   92.4559    9.7186 H       1  UNL1        0.2105
      4 C          64.3934   90.7549   11.6046 C.3     1  UNL1        0.1245
      5 C          64.9994   91.8954   13.8589 C.2     1  UNL1        0.2492
      6 O          65.5451   93.0705   14.6148 O.2     1  UNL1       -0.2699
      7 N          64.9391   91.9299   12.3605 N.am    1  UNL1       -0.2735
      8 C          63.8933   85.8920   15.7277 C.ar    1  UNL1        0.2891
      9 N          63.2197   86.8994   16.6116 N.ar    1  UNL1       -0.1948
     10 C          63.5431   88.2667   16.0864 C.ar    1  UNL1        0.1202
     11 C          63.1550   89.6386   16.5524 C.ar    1  UNL1        0.0225
     12 C          63.6404   90.8481   15.8099 C.ar    1  UNL1        0.0063
     13 C          64.5139   90.6858   14.6014 C.ar    1  UNL1        0.0567
     14 C          64.9020   89.3139   14.1353 C.ar    1  UNL1        0.0437
     15 C          64.4166   88.1044   14.8778 C.ar    1  UNL1        0.1662
     16 O          64.6330   86.6367   14.6562 O.2     1  UNL1       -0.4239
     17 C          62.6130   83.6472   15.4601 C.3     1  UNL1        0.1123
     18 N          63.8371   84.4016   15.8873 N.pl3   1  UNL1       -0.2866
     19 H          64.6036   83.9185   16.2725 H       1  UNL1        0.1512
     20 C          65.4245   93.1395   11.6180 C.3     1  UNL1        0.0937
     21 C          66.6676   93.0578   10.7825 C.3     1  UNL1        0.0199
     22 C          66.8459   93.9780    9.6114 C.3     1  UNL1        0.0018
     23 C          67.7323   92.0559   11.1180 C.3     1  UNL1        0.0018
     24 C          61.9700   89.9701   11.0931 C.3     1  UNL1        0.1075
     25 N          62.1563   88.7816   11.9892 N.am    1  UNL1       -0.2695
     26 C          62.5589   87.4591   11.4070 C.2     1  UNL1        0.4020
     27 O          62.7752   87.3251    9.9287 O.2     1  UNL1       -0.2264
     28 H          62.0143   88.8695   12.9594 H       1  UNL1        0.1528
     29 O          62.7452   86.2706   12.3030 O.3     1  UNL1       -0.4291
     30 C          62.0602   84.9752   11.9827 C.3     1  UNL1        0.2447
     31 C          62.8581   83.8098   11.4777 C.ar    1  UNL1        0.0714
     32 C          63.8644   83.8457   10.3658 C.ar    1  UNL1        0.1053
     33 N          64.4181   82.4620   10.1967 N.ar    1  UNL1       -0.2350
     34 C          63.7541   81.5707   11.2042 C.ar    1  UNL1        0.1343
     35 S          62.7900   82.4037   11.9959 S.2     1  UNL1       -0.0652
     36 C          60.6323   90.2364   10.4690 C.3     1  UNL1        0.0485
     37 C          60.0928   89.3043    9.4249 C.ar    1  UNL1       -0.0204
     38 C          59.9493   89.7696    8.0062 C.ar    1  UNL1       -0.0042
     39 C          59.4098   88.8374    6.9621 C.ar    1  UNL1       -0.0003
     40 C          59.0138   87.4400    7.3368 C.ar    1  UNL1       -0.0000
     41 C          59.1573   86.9748    8.7555 C.ar    1  UNL1       -0.0003
     42 C          59.6968   87.9069    9.7996 C.ar    1  UNL1       -0.0042
@<TRIPOS>BOND
     1    17    18    1
     2    18     8    1
     3     8     9   ar
     4     9    10   ar
     5    10    11   ar
     6    11    12   ar
     7    12    13   ar
     8    13     5    1
     9     5     6    2
    10     5     7   am
    11     7    20    1
    12    20    21    1
    13    21    22    1
    14    21    23    1
    15     7     4    1
    16     4     1    1
    17     1     2    1
    18     1    24    1
    19    24    36    1
    20    36    37    1
    21    37    38   ar
    22    38    39   ar
    23    39    40   ar
    24    40    41   ar
    25    41    42   ar
    26    24    25    1
    27    25    26   am
    28    26    27    2
    29    26    29    1
    30    29    30    1
    31    30    31    1
    32    31    32   ar
    33    32    33   ar
    34    33    34   ar
    35    34    35   ar
    36    13    14   ar
    37    14    15   ar
    38    15    16   ar
    39    16     8   ar
    40    15    10   ar
    41    42    37   ar
    42    35    31   ar
    43    18    19    1
    44     2     3    1
    45    25    28    1
@<TRIPOS>MOLECULE
*****
 42 45 0 0 0
SMALL
GASTEIGER

@<TRIPOS>ATOM
      1 C          62.8424   88.9382   12.0249 C.3     1  UNL1        0.1484
      2 O          62.7678   90.2066   11.2277 O.3     1  UNL1       -0.3810
      3 H          63.4607   90.8168   11.5253 H       1  UNL1        0.2105
      4 C          63.8867   88.7824   13.0904 C.3     1  UNL1        0.1245
      5 C          64.3418   90.6824   14.8030 C.2     1  UNL1        0.2492
      6 O          64.1270   91.2888   16.1581 O.2     1  UNL1       -0.2699
      7 N          63.6719   89.3888   14.4455 N.am    1  UNL1       -0.2735
      8 C          66.5018   93.9763    9.7790 C.ar    1  UNL1        0.2891
      9 N          67.6104   93.5006   10.6704 N.ar    1  UNL1       -0.1948
     10 C          66.9961   92.7439   11.8106 C.ar    1  UNL1        0.1202
     11 C          67.5996   92.0486   12.9948 C.ar    1  UNL1        0.0225
     12 C          66.7149   91.3615   13.9922 C.ar    1  UNL1        0.0063
     13 C          65.2266   91.3696   13.8055 C.ar    1  UNL1        0.0567
     14 C          64.6230   92.0649   12.6214 C.ar    1  UNL1        0.0437
     15 C          65.5078   92.7521   11.6239 C.ar    1  UNL1        0.1662
     16 O          65.2023   93.5137   10.3683 O.2     1  UNL1       -0.4239
     17 C          67.4636   96.0436    8.5335 C.3     1  UNL1        0.1123
     18 N          66.6642   94.7745    8.5194 N.pl3   1  UNL1       -0.2866
     19 H          66.2460   94.4655    7.6834 H       1  UNL1        0.1512
     20 C          62.7871   88.7016   15.4430 C.3     1  UNL1        0.0937
     21 C          63.2796   87.4853   16.1697 C.3     1  UNL1        0.0199
     22 C          62.8734   87.2467   17.5937 C.3     1  UNL1        0.0018
     23 C          64.1783   86.5076   15.4722 C.3     1  UNL1        0.0018
     24 C          61.8728   87.8257   11.7567 C.3     1  UNL1        0.1075
     25 N          62.3170   86.3981   11.8780 N.am    1  UNL1       -0.2695
     26 C          62.7144   85.6296   10.6527 C.2     1  UNL1        0.4020
     27 O          62.6676   86.2886    9.3061 O.2     1  UNL1       -0.2264
     28 H          62.3478   85.9655   12.7619 H       1  UNL1        0.1528
     29 O          63.1587   84.2019   10.7740 O.3     1  UNL1       -0.4291
     30 C          63.7635   83.7110   12.0559 C.3     1  UNL1        0.2447
     31 C          63.1097   82.5941   12.8142 C.ar    1  UNL1        0.0714
     32 C          62.5135   82.6912   14.1872 C.ar    1  UNL1        0.1053
     33 N          61.9726   81.3412   14.5543 N.ar    1  UNL1       -0.2350
     34 C          62.2346   80.4096   13.4081 C.ar    1  UNL1        0.1343
     35 S          62.9374   81.1840   12.3327 S.2     1  UNL1       -0.0652
     36 C          60.4589   88.1406   11.3672 C.3     1  UNL1        0.0485
     37 C          60.0711   88.1804    9.9187 C.ar    1  UNL1       -0.0204
     38 C          60.2567   89.4407    9.1269 C.ar    1  UNL1       -0.0042
     39 C          59.8689   89.4805    7.6785 C.ar    1  UNL1       -0.0003
     40 C          59.2955   88.2598    7.0218 C.ar    1  UNL1       -0.0000
     41 C          59.1099   86.9995    7.8136 C.ar    1  UNL1       -0.0003
     42 C          59.4977   86.9597    9.2621 C.ar    1  UNL1       -0.0042
@<TRIPOS>BOND
     1    17    18    1
     2    18     8    1
     3     8     9   ar
     4     9    10   ar
     5    10    11   ar
     6    11    12   ar
     7    12    13   ar
     8    13     5    1
     9     5     6    2
    10     5     7   am
    11     7    20    1
    12    20    21    1
    13    21    22    1
    14    21    23    1
    15     7     4    1
    16     4     1    1
    17     1     2    1
    18     1    24    1
    19    24    36    1
    20    36    37    1
    21    37    38   ar
    22    38    39   ar
    23    39    40   ar
    24    40    41   ar
    25    41    42   ar
    26    24    25    1
    27    25    26   am
    28    26    27    2
    29    26    29    1
    30    29    30    1
    31    30    31    1
    32    31    32   ar
    33    32    33   ar
    34    33    34   ar
    35    34    35   ar
    36    13    14   ar
    37    14    15   ar
    38    15    16   ar
    39    16     8   ar
    40    15    10   ar
    41    42    37   ar
    42    35    31   ar
    43    18    19    1
    44     2     3    1
    45    25    28    1
