@<TRIPOS>MOLECULE
*****
 35 39 0 0 0
SMALL
GASTEIGER

@<TRIPOS>ATOM
      1 C          61.6455   88.1396   11.1170 C.ar    1  UNL1        0.0447
      2 C          61.3436   88.8489    9.8302 C.ar    1  UNL1        0.0156
      3 C          62.0277   90.1447    9.5098 C.ar    1  UNL1        0.0159
      4 C          63.0137   90.7313   10.4762 C.ar    1  UNL1        0.0507
      5 C          63.3156   90.0220   11.7629 C.ar    1  UNL1        0.0192
      6 C          62.6315   88.7261   12.0833 C.ar    1  UNL1        0.0157
      7 C          64.3259   90.8364   12.5152 C.2     1  UNL1        0.0578
      8 C          64.9109   90.4976   13.8542 C.2     1  UNL1        0.0383
      9 C          64.6484   92.0491   11.6933 C.2     1  UNL1        0.2496
     10 O          65.6127   93.1360   12.0663 O.2     1  UNL1       -0.2698
     11 N          63.8375   91.9842   10.4332 N.am    1  UNL1       -0.2804
     12 H          63.8446   92.6473    9.7056 H       1  UNL1        0.1552
     13 C          65.9169   91.4132   14.4865 C.ar    1  UNL1        0.0031
     14 C          65.5348   92.2374   15.6801 C.ar    1  UNL1        0.0010
     15 C          66.5407   93.1530   16.3124 C.ar    1  UNL1        0.0114
     16 C          67.9287   93.2444   15.7511 C.ar    1  UNL1        0.0577
     17 CL         68.9346   94.1600   16.3835 Cl      1  UNL1       -0.0822
     18 C          68.3108   92.4202   14.5575 C.ar    1  UNL1        0.0114
     19 C          67.3049   91.5046   13.9252 C.ar    1  UNL1        0.0010
     20 C          64.4901   89.2433   14.5609 C.ar    1  UNL1        0.1407
     21 N          63.5054   89.1549   15.6890 N.ar    1  UNL1       -0.2254
     22 C          63.3867   87.7142   16.0890 C.ar    1  UNL1        0.1189
     23 C          64.2981   86.9120   15.2081 C.ar    1  UNL1        0.0945
     24 N          64.9800   87.8570   14.2637 N.ar    1  UNL1       -0.3361
     25 H          65.6343   87.6107   13.5705 H       1  UNL1        0.1674
     26 N          60.9614   86.8436   11.4374 N.pl3   1  UNL1       -0.3339
     27 H          59.9784   86.8017   11.4738 H       1  UNL1        0.1468
     28 N          63.4019   83.1474   12.2325 N.3     1  UNL1       -0.2726
     29 C          63.2173   83.6362   10.8265 C.3     1  UNL1        0.0738
     30 C          62.4038   84.8683   10.5614 C.3     1  UNL1        0.0368
     31 C          61.7748   85.6116   11.7024 C.3     1  UNL1        0.0718
     32 C          61.9594   85.1227   13.1085 C.3     1  UNL1        0.0368
     33 C          62.7729   83.8907   13.3735 C.3     1  UNL1        0.0738
     34 C          63.8031   80.9631   13.5806 C.3     1  UNL1        0.0188
     35 C          64.2153   81.9154   12.4975 C.3     1  UNL1        0.0721
@<TRIPOS>BOND
     1    34    35    1
     2    35    28    1
     3    28    29    1
     4    29    30    1
     5    30    31    1
     6    31    26    1
     7    26     1    1
     8     1     2   ar
     9     2     3   ar
    10     3     4   ar
    11     4     5   ar
    12     5     6   ar
    13     5     7    1
    14     7     8    2
    15     8    13    1
    16    13    14   ar
    17    14    15   ar
    18    15    16   ar
    19    16    17    1
    20    16    18   ar
    21    18    19   ar
    22     8    20    1
    23    20    21   ar
    24    21    22   ar
    25    22    23   ar
    26    23    24   ar
    27     7     9    1
    28     9    10    2
    29     9    11   am
    30    31    32    1
    31    32    33    1
    32    33    28    1
    33     6     1   ar
    34    19    13   ar
    35    24    20   ar
    36    11     4    1
    37    26    27    1
    38    24    25    1
    39    11    12    1
@<TRIPOS>MOLECULE
*****
 35 39 0 0 0
SMALL
GASTEIGER

@<TRIPOS>ATOM
      1 C          63.5330   89.2919   13.3315 C.ar    1  UNL1        0.0447
      2 C          64.3257   89.4352   14.5968 C.ar    1  UNL1        0.0156
      3 C          64.8256   88.2145   15.3110 C.ar    1  UNL1        0.0159
      4 C          64.5327   86.8505   14.7599 C.ar    1  UNL1        0.0507
      5 C          63.7400   86.7072   13.4946 C.ar    1  UNL1        0.0192
      6 C          63.2401   87.9279   12.7804 C.ar    1  UNL1        0.0157
      7 C          63.6087   85.2437   13.1931 C.2     1  UNL1        0.0578
      8 C          62.8917   84.6463   12.0188 C.2     1  UNL1        0.0383
      9 C          64.3203   84.4825   14.2721 C.2     1  UNL1        0.2496
     10 O          64.4398   82.9902   14.3663 O.2     1  UNL1       -0.2698
     11 N          64.8914   85.4756   15.2405 N.am    1  UNL1       -0.2804
     12 H          65.4104   85.2624   16.0494 H       1  UNL1        0.1552
     13 C          62.8437   83.1568   11.8478 C.ar    1  UNL1        0.0031
     14 C          63.4840   82.5183   10.6510 C.ar    1  UNL1        0.0010
     15 C          63.4361   81.0289   10.4800 C.ar    1  UNL1        0.0114
     16 C          62.7478   80.1779   11.5058 C.ar    1  UNL1        0.0577
     17 CL         62.6999   78.6884   11.3347 Cl      1  UNL1       -0.0822
     18 C          62.1076   80.8164   12.7026 C.ar    1  UNL1        0.0114
     19 C          62.1555   82.3059   12.8736 C.ar    1  UNL1        0.0010
     20 C          62.2226   85.5382   11.0155 C.ar    1  UNL1        0.1407
     21 N          62.6691   85.7654    9.6016 N.ar    1  UNL1       -0.2254
     22 C          61.7121   86.7272    8.9621 C.ar    1  UNL1        0.1189
     23 C          60.6740   87.0945    9.9808 C.ar    1  UNL1        0.0945
     24 N          60.9895   86.3597   11.2498 N.ar    1  UNL1       -0.3361
     25 H          60.4772   86.4081   12.0891 H       1  UNL1        0.1674
     26 N          63.0331   90.5126   12.6173 N.pl3   1  UNL1       -0.3339
     27 H          62.0660   90.6488   12.4931 H       1  UNL1        0.1468
     28 N          65.9539   93.5519   11.0421 N.3     1  UNL1       -0.2726
     29 C          64.9533   92.9241   10.1178 C.3     1  UNL1        0.0738
     30 C          63.9796   91.9110   10.6428 C.3     1  UNL1        0.0368
     31 C          64.0067   91.5257   12.0922 C.3     1  UNL1        0.0718
     32 C          65.0074   92.1535   13.0166 C.3     1  UNL1        0.0368
     33 C          65.9810   93.1666   12.4915 C.3     1  UNL1        0.0738
     34 C          67.8642   94.1986    9.4043 C.3     1  UNL1        0.0188
     35 C          66.9275   94.5650   10.5171 C.3     1  UNL1        0.0721
@<TRIPOS>BOND
     1    34    35    1
     2    35    28    1
     3    28    29    1
     4    29    30    1
     5    30    31    1
     6    31    26    1
     7    26     1    1
     8     1     2   ar
     9     2     3   ar
    10     3     4   ar
    11     4     5   ar
    12     5     6   ar
    13     5     7    1
    14     7     8    2
    15     8    13    1
    16    13    14   ar
    17    14    15   ar
    18    15    16   ar
    19    16    17    1
    20    16    18   ar
    21    18    19   ar
    22     8    20    1
    23    20    21   ar
    24    21    22   ar
    25    22    23   ar
    26    23    24   ar
    27     7     9    1
    28     9    10    2
    29     9    11   am
    30    31    32    1
    31    32    33    1
    32    33    28    1
    33     6     1   ar
    34    19    13   ar
    35    24    20   ar
    36    11     4    1
    37    26    27    1
    38    24    25    1
    39    11    12    1
@<TRIPOS>MOLECULE
*****
 35 39 0 0 0
SMALL
GASTEIGER

@<TRIPOS>ATOM
      1 C          62.9420   89.9691   13.0727 C.ar    1  UNL1        0.0447
      2 C          62.4911   90.7366   11.8655 C.ar    1  UNL1        0.0156
      3 C          62.1670   90.0110   10.5934 C.ar    1  UNL1        0.0159
      4 C          62.2938   88.5178   10.5285 C.ar    1  UNL1        0.0507
      5 C          62.7447   87.7502   11.7357 C.ar    1  UNL1        0.0192
      6 C          63.0688   88.4758   13.0079 C.ar    1  UNL1        0.0157
      7 C          62.7757   86.2947   11.3746 C.2     1  UNL1        0.0578
      8 C          63.1694   85.1688   12.2842 C.2     1  UNL1        0.0383
      9 C          62.3439   86.1626    9.9442 C.2     1  UNL1        0.2496
     10 O          62.2300   84.8815    9.1722 O.2     1  UNL1       -0.2698
     11 N          62.0461   87.5366    9.4212 N.am    1  UNL1       -0.2804
     12 H          61.7415   87.7559    8.5111 H       1  UNL1        0.1552
     13 C          63.1517   83.7561   11.7802 C.ar    1  UNL1        0.0031
     14 C          64.0242   83.3607   10.6259 C.ar    1  UNL1        0.0010
     15 C          64.0066   81.9480   10.1219 C.ar    1  UNL1        0.0114
     16 C          63.1164   80.9308   10.7721 C.ar    1  UNL1        0.0577
     17 CL         63.0988   79.5181   10.2680 Cl      1  UNL1       -0.0822
     18 C          62.2439   81.3262   11.9264 C.ar    1  UNL1        0.0114
     19 C          62.2616   82.7389   12.4304 C.ar    1  UNL1        0.0010
     20 C          63.5807   85.4555   13.6979 C.ar    1  UNL1        0.1407
     21 N          64.9070   86.0020   14.1367 N.ar    1  UNL1       -0.2254
     22 C          64.8841   86.1304   15.6310 C.ar    1  UNL1        0.1189
     23 C          63.5436   85.6632   16.1158 C.ar    1  UNL1        0.0945
     24 N          62.7381   85.2461   14.9212 N.ar    1  UNL1       -0.3361
     25 H          61.8180   84.8964   14.9371 H       1  UNL1        0.1674
     26 N          63.2662   90.6947   14.3450 N.pl3   1  UNL1       -0.3339
     27 H          62.5772   90.8015   15.0400 H       1  UNL1        0.1468
     28 N          67.3879   92.3835   14.9845 N.3     1  UNL1       -0.2726
     29 C          66.3745   92.4405   16.0888 C.3     1  UNL1        0.0738
     30 C          65.0005   91.8775   15.8756 C.3     1  UNL1        0.0368
     31 C          64.6401   91.2576   14.5581 C.3     1  UNL1        0.0718
     32 C          65.6536   91.2007   13.4538 C.3     1  UNL1        0.0368
     33 C          67.0275   91.7636   13.6670 C.3     1  UNL1        0.0738
     34 C          68.9446   94.1873   16.0203 C.3     1  UNL1        0.0188
     35 C          68.7618   92.9464   15.1976 C.3     1  UNL1        0.0721
@<TRIPOS>BOND
     1    34    35    1
     2    35    28    1
     3    28    29    1
     4    29    30    1
     5    30    31    1
     6    31    26    1
     7    26     1    1
     8     1     2   ar
     9     2     3   ar
    10     3     4   ar
    11     4     5   ar
    12     5     6   ar
    13     5     7    1
    14     7     8    2
    15     8    13    1
    16    13    14   ar
    17    14    15   ar
    18    15    16   ar
    19    16    17    1
    20    16    18   ar
    21    18    19   ar
    22     8    20    1
    23    20    21   ar
    24    21    22   ar
    25    22    23   ar
    26    23    24   ar
    27     7     9    1
    28     9    10    2
    29     9    11   am
    30    31    32    1
    31    32    33    1
    32    33    28    1
    33     6     1   ar
    34    19    13   ar
    35    24    20   ar
    36    11     4    1
    37    26    27    1
    38    24    25    1
    39    11    12    1
@<TRIPOS>MOLECULE
*****
 35 39 0 0 0
SMALL
GASTEIGER

@<TRIPOS>ATOM
      1 C          63.7604   88.2288   14.9249 C.ar    1  UNL1        0.0447
      2 C          64.2967   87.0989   15.7529 C.ar    1  UNL1        0.0156
      3 C          64.3597   85.7139   15.1805 C.ar    1  UNL1        0.0159
      4 C          63.8864   85.4588   13.7802 C.ar    1  UNL1        0.0507
      5 C          63.3502   86.5887   12.9522 C.ar    1  UNL1        0.0192
      6 C          63.2872   87.9737   13.5246 C.ar    1  UNL1        0.0157
      7 C          62.9592   86.0372   11.6132 C.2     1  UNL1        0.0578
      8 C          62.3760   86.8193   10.4738 C.2     1  UNL1        0.0383
      9 C          63.2538   84.5664   11.6136 C.2     1  UNL1        0.2496
     10 O          63.0170   83.6195   10.4746 O.2     1  UNL1       -0.2698
     11 N          63.8269   84.2089   12.9529 N.am    1  UNL1       -0.2804
     12 H          64.1136   83.3115   13.2387 H       1  UNL1        0.1552
     13 C          62.0328   86.1280    9.1876 C.ar    1  UNL1        0.0031
     14 C          63.1070   85.4475    8.3920 C.ar    1  UNL1        0.0010
     15 C          62.7638   84.7562    7.1058 C.ar    1  UNL1        0.0114
     16 C          61.3464   84.7454    6.6152 C.ar    1  UNL1        0.0577
     17 CL         61.0033   84.0540    5.3289 Cl      1  UNL1       -0.0822
     18 C          60.2722   85.4258    7.4107 C.ar    1  UNL1        0.0114
     19 C          60.6154   86.1171    8.6970 C.ar    1  UNL1        0.0010
     20 C          62.1359   88.2926   10.6205 C.ar    1  UNL1        0.1407
     21 N          62.9544   89.3855    9.9993 N.ar    1  UNL1       -0.2254
     22 C          62.3597   90.7001   10.4090 C.ar    1  UNL1        0.1189
     23 C          61.1735   90.4199   11.2835 C.ar    1  UNL1        0.0945
     24 N          61.0353   88.9320   11.4142 N.ar    1  UNL1       -0.3361
     25 H          60.3436   88.4583   11.9303 H       1  UNL1        0.1674
     26 N          63.6974   89.6140   15.4973 N.pl3   1  UNL1       -0.3339
     27 H          63.2047   89.7791   16.3334 H       1  UNL1        0.1468
     28 N          65.7607   93.0143   13.3923 N.3     1  UNL1       -0.2726
     29 C          65.9700   92.8051   14.8628 C.3     1  UNL1        0.0738
     30 C          65.2822   91.6716   15.5645 C.3     1  UNL1        0.0368
     31 C          64.3852   90.7474   14.7956 C.3     1  UNL1        0.0718
     32 C          64.1759   90.9567   13.3251 C.3     1  UNL1        0.0368
     33 C          64.8637   92.0901   12.6235 C.3     1  UNL1        0.0738
     34 C          66.4587   94.2062   11.1919 C.3     1  UNL1        0.0188
     35 C          66.4484   94.1477   12.6907 C.3     1  UNL1        0.0721
@<TRIPOS>BOND
     1    34    35    1
     2    35    28    1
     3    28    29    1
     4    29    30    1
     5    30    31    1
     6    31    26    1
     7    26     1    1
     8     1     2   ar
     9     2     3   ar
    10     3     4   ar
    11     4     5   ar
    12     5     6   ar
    13     5     7    1
    14     7     8    2
    15     8    13    1
    16    13    14   ar
    17    14    15   ar
    18    15    16   ar
    19    16    17    1
    20    16    18   ar
    21    18    19   ar
    22     8    20    1
    23    20    21   ar
    24    21    22   ar
    25    22    23   ar
    26    23    24   ar
    27     7     9    1
    28     9    10    2
    29     9    11   am
    30    31    32    1
    31    32    33    1
    32    33    28    1
    33     6     1   ar
    34    19    13   ar
    35    24    20   ar
    36    11     4    1
    37    26    27    1
    38    24    25    1
    39    11    12    1
@<TRIPOS>MOLECULE
*****
 35 39 0 0 0
SMALL
GASTEIGER

@<TRIPOS>ATOM
      1 C          63.6478   87.9019   13.6927 C.ar    1  UNL1        0.0447
      2 C          64.1841   87.8770   15.0933 C.ar    1  UNL1        0.0156
      3 C          64.4686   86.5659   15.7642 C.ar    1  UNL1        0.0159
      4 C          64.2167   85.2798   15.0345 C.ar    1  UNL1        0.0507
      5 C          63.6804   85.3047   13.6339 C.ar    1  UNL1        0.0192
      6 C          63.3960   86.6158   12.9630 C.ar    1  UNL1        0.0157
      7 C          63.5326   83.8864   13.1689 C.2     1  UNL1        0.0578
      8 C          63.0284   83.4467   11.8263 C.2     1  UNL1        0.0383
      9 C          63.9776   82.9848   14.2821 C.2     1  UNL1        0.2496
     10 O          63.9964   81.4852   14.2482 O.2     1  UNL1       -0.2698
     11 N          64.4004   83.8459   15.4352 N.am    1  UNL1       -0.2804
     12 H          64.7390   83.5263   16.3026 H       1  UNL1        0.1552
     13 C          62.9353   81.9852   11.5019 C.ar    1  UNL1        0.0031
     14 C          63.4417   81.4754   10.1853 C.ar    1  UNL1        0.0010
     15 C          63.3486   80.0139    9.8609 C.ar    1  UNL1        0.0114
     16 C          62.7491   79.0621   10.8531 C.ar    1  UNL1        0.0577
     17 CL         62.6560   77.6005   10.5286 Cl      1  UNL1       -0.0822
     18 C          62.2426   79.5718   12.1698 C.ar    1  UNL1        0.0114
     19 C          62.3357   81.0334   12.4942 C.ar    1  UNL1        0.0010
     20 C          62.6172   84.4686   10.8082 C.ar    1  UNL1        0.1407
     21 N          63.3069   84.7410    9.5042 N.ar    1  UNL1       -0.2254
     22 C          62.5602   85.8382    8.8052 C.ar    1  UNL1        0.1189
     23 C          61.4090   86.2439    9.6772 C.ar    1  UNL1        0.0945
     24 N          61.4442   85.3975   10.9150 N.ar    1  UNL1       -0.3361
     25 H          60.8090   85.4435   11.6658 H       1  UNL1        0.1674
     26 N          63.3634   89.2130   13.0217 N.pl3   1  UNL1       -0.3339
     27 H          62.6124   89.2899   12.3898 H       1  UNL1        0.1468
     28 N          65.9425   92.7951   13.8974 N.3     1  UNL1       -0.2726
     29 C          65.7398   91.7424   14.9466 C.3     1  UNL1        0.0738
     30 C          64.8801   90.5483   14.6547 C.3     1  UNL1        0.0368
     31 C          64.2231   90.4070   13.3136 C.3     1  UNL1        0.0718
     32 C          64.4258   91.4598   12.2645 C.3     1  UNL1        0.0368
     33 C          65.2855   92.6538   12.5564 C.3     1  UNL1        0.0738
     34 C          67.7398   93.9700   15.3601 C.3     1  UNL1        0.0188
     35 C          66.8022   93.9891   14.1893 C.3     1  UNL1        0.0721
@<TRIPOS>BOND
     1    34    35    1
     2    35    28    1
     3    28    29    1
     4    29    30    1
     5    30    31    1
     6    31    26    1
     7    26     1    1
     8     1     2   ar
     9     2     3   ar
    10     3     4   ar
    11     4     5   ar
    12     5     6   ar
    13     5     7    1
    14     7     8    2
    15     8    13    1
    16    13    14   ar
    17    14    15   ar
    18    15    16   ar
    19    16    17    1
    20    16    18   ar
    21    18    19   ar
    22     8    20    1
    23    20    21   ar
    24    21    22   ar
    25    22    23   ar
    26    23    24   ar
    27     7     9    1
    28     9    10    2
    29     9    11   am
    30    31    32    1
    31    32    33    1
    32    33    28    1
    33     6     1   ar
    34    19    13   ar
    35    24    20   ar
    36    11     4    1
    37    26    27    1
    38    24    25    1
    39    11    12    1
@<TRIPOS>MOLECULE
*****
 35 39 0 0 0
SMALL
GASTEIGER

@<TRIPOS>ATOM
      1 C          62.8688   89.7348   12.2925 C.ar    1  UNL1        0.0447
      2 C          62.5986   90.0016   10.8414 C.ar    1  UNL1        0.0156
      3 C          62.3849   88.8571    9.8956 C.ar    1  UNL1        0.0159
      4 C          62.4414   87.4459   10.4010 C.ar    1  UNL1        0.0507
      5 C          62.7116   87.1792   11.8521 C.ar    1  UNL1        0.0192
      6 C          62.9253   88.3237   12.7979 C.ar    1  UNL1        0.0157
      7 C          62.7087   85.6935   12.0587 C.2     1  UNL1        0.0578
      8 C          62.9377   84.9839   13.3602 C.2     1  UNL1        0.0383
      9 C          62.4368   85.0420   10.7352 C.2     1  UNL1        0.2496
     10 O          62.3460   83.5665   10.4809 O.2     1  UNL1       -0.2698
     11 N          62.2715   86.1251    9.7106 N.am    1  UNL1       -0.2804
     12 H          62.0844   85.9923    8.7532 H       1  UNL1        0.1552
     13 C          62.9051   83.4852   13.4132 C.ar    1  UNL1        0.0031
     14 C          61.6870   82.7794   13.9311 C.ar    1  UNL1        0.0010
     15 C          61.6544   81.2807   13.9841 C.ar    1  UNL1        0.0114
     16 C          62.8399   80.4878   13.5192 C.ar    1  UNL1        0.0577
     17 CL         62.8072   78.9890   13.5723 Cl      1  UNL1       -0.0822
     18 C          64.0579   81.1936   13.0014 C.ar    1  UNL1        0.0114
     19 C          64.0905   82.6923   12.9484 C.ar    1  UNL1        0.0010
     20 C          63.1992   85.7729   14.6088 C.ar    1  UNL1        0.1407
     21 N          62.4879   85.6109   15.9195 N.ar    1  UNL1       -0.2254
     22 C          63.0670   86.6002   16.8867 C.ar    1  UNL1        0.1189
     23 C          64.1363   87.3740   16.1738 C.ar    1  UNL1        0.0945
     24 N          64.2180   86.8627   14.7661 N.ar    1  UNL1       -0.3361
     25 H          64.8324   87.1856   14.0679 H       1  UNL1        0.1674
     26 N          63.0825   90.8793   13.2384 N.pl3   1  UNL1       -0.3339
     27 H          62.3095   91.3717   13.5980 H       1  UNL1        0.1468
     28 N          67.2569   92.0623   14.4321 N.3     1  UNL1       -0.2726
     29 C          66.6011   90.8759   15.0741 C.3     1  UNL1        0.0738
     30 C          65.2096   90.4815   14.6762 C.3     1  UNL1        0.0368
     31 C          64.4739   91.2736   13.6363 C.3     1  UNL1        0.0718
     32 C          65.1299   92.4601   12.9942 C.3     1  UNL1        0.0368
     33 C          66.5213   92.8544   13.3921 C.3     1  UNL1        0.0738
     34 C          68.8853   93.7560   15.5409 C.3     1  UNL1        0.0188
     35 C          68.6483   92.4566   14.8300 C.3     1  UNL1        0.0721
@<TRIPOS>BOND
     1    34    35    1
     2    35    28    1
     3    28    29    1
     4    29    30    1
     5    30    31    1
     6    31    26    1
     7    26     1    1
     8     1     2   ar
     9     2     3   ar
    10     3     4   ar
    11     4     5   ar
    12     5     6   ar
    13     5     7    1
    14     7     8    2
    15     8    13    1
    16    13    14   ar
    17    14    15   ar
    18    15    16   ar
    19    16    17    1
    20    16    18   ar
    21    18    19   ar
    22     8    20    1
    23    20    21   ar
    24    21    22   ar
    25    22    23   ar
    26    23    24   ar
    27     7     9    1
    28     9    10    2
    29     9    11   am
    30    31    32    1
    31    32    33    1
    32    33    28    1
    33     6     1   ar
    34    19    13   ar
    35    24    20   ar
    36    11     4    1
    37    26    27    1
    38    24    25    1
    39    11    12    1
@<TRIPOS>MOLECULE
*****
 35 39 0 0 0
SMALL
GASTEIGER

@<TRIPOS>ATOM
      1 C          63.5623   89.5955   13.0126 C.ar    1  UNL1        0.0447
      2 C          64.3950   89.9516   14.2083 C.ar    1  UNL1        0.0156
      3 C          64.8944   88.8725   15.1226 C.ar    1  UNL1        0.0159
      4 C          64.5610   87.4373   14.8413 C.ar    1  UNL1        0.0507
      5 C          63.7283   87.0812   13.6457 C.ar    1  UNL1        0.0192
      6 C          63.2289   88.1603   12.7313 C.ar    1  UNL1        0.0157
      7 C          63.5621   85.5906   13.6238 C.2     1  UNL1        0.0578
      8 C          62.7997   84.8034   12.5996 C.2     1  UNL1        0.0383
      9 C          64.2922   85.0254   14.8060 C.2     1  UNL1        0.2496
     10 O          64.3880   83.5738   15.1715 O.2     1  UNL1       -0.2698
     11 N          64.9096   86.1667   15.5585 N.am    1  UNL1       -0.2804
     12 H          65.4488   86.0946   16.3790 H       1  UNL1        0.1552
     13 C          62.7203   83.3095   12.7085 C.ar    1  UNL1        0.0031
     14 C          63.3472   82.4463   11.6541 C.ar    1  UNL1        0.0010
     15 C          63.2678   80.9523   11.7630 C.ar    1  UNL1        0.0114
     16 C          62.5615   80.3216   12.9263 C.ar    1  UNL1        0.0577
     17 CL         62.4822   78.8276   13.0351 Cl      1  UNL1       -0.0822
     18 C          61.9346   81.1848   13.9807 C.ar    1  UNL1        0.0114
     19 C          62.0140   82.6788   13.8718 C.ar    1  UNL1        0.0010
     20 C          62.1167   85.5101   11.4664 C.ar    1  UNL1        0.1407
     21 N          62.5394   85.4827   10.0275 N.ar    1  UNL1       -0.2254
     22 C          61.5751   86.3238    9.2449 C.ar    1  UNL1        0.1189
     23 C          60.5563   86.8712   10.2002 C.ar    1  UNL1        0.0945
     24 N          60.8910   86.3682   11.5731 N.ar    1  UNL1       -0.3361
     25 H          60.3936   86.5666   12.3993 H       1  UNL1        0.1674
     26 N          63.0628   90.6746   12.0981 N.pl3   1  UNL1       -0.3339
     27 H          63.3776   91.6005   12.2114 H       1  UNL1        0.1468
     28 N          60.1259   89.6797    8.8371 N.3     1  UNL1       -0.2726
     29 C          61.5994   89.6148    8.5647 C.3     1  UNL1        0.0738
     30 C          62.5785   89.9464    9.6517 C.3     1  UNL1        0.0368
     31 C          62.0839   90.3430   11.0111 C.3     1  UNL1        0.0718
     32 C          60.6102   90.4079   11.2836 C.3     1  UNL1        0.0368
     33 C          59.6312   90.0762   10.1966 C.3     1  UNL1        0.0738
     34 C          59.4434   89.7323    6.3309 C.3     1  UNL1        0.0188
     35 C          59.1469   89.3480    7.7501 C.3     1  UNL1        0.0721
@<TRIPOS>BOND
     1    34    35    1
     2    35    28    1
     3    28    29    1
     4    29    30    1
     5    30    31    1
     6    31    26    1
     7    26     1    1
     8     1     2   ar
     9     2     3   ar
    10     3     4   ar
    11     4     5   ar
    12     5     6   ar
    13     5     7    1
    14     7     8    2
    15     8    13    1
    16    13    14   ar
    17    14    15   ar
    18    15    16   ar
    19    16    17    1
    20    16    18   ar
    21    18    19   ar
    22     8    20    1
    23    20    21   ar
    24    21    22   ar
    25    22    23   ar
    26    23    24   ar
    27     7     9    1
    28     9    10    2
    29     9    11   am
    30    31    32    1
    31    32    33    1
    32    33    28    1
    33     6     1   ar
    34    19    13   ar
    35    24    20   ar
    36    11     4    1
    37    26    27    1
    38    24    25    1
    39    11    12    1
@<TRIPOS>MOLECULE
*****
 35 39 0 0 0
SMALL
GASTEIGER

@<TRIPOS>ATOM
      1 C          63.1965   93.6183   -2.5625 C.ar    1  UNL1        0.0447
      2 C          63.5401   93.7005   -4.0203 C.ar    1  UNL1        0.0156
      3 C          62.4805   94.0523   -5.0220 C.ar    1  UNL1        0.0159
      4 C          61.0772   94.3219   -4.5659 C.ar    1  UNL1        0.0507
      5 C          60.7335   94.2397   -3.1081 C.ar    1  UNL1        0.0192
      6 C          61.7931   93.8879   -2.1065 C.ar    1  UNL1        0.0157
      7 C          59.2749   94.5555   -2.9572 C.2     1  UNL1        0.0578
      8 C          58.5087   94.5882   -1.6682 C.2     1  UNL1        0.0383
      9 C          58.7171   94.8329   -4.3218 C.2     1  UNL1        0.2496
     10 O          57.2951   95.1916   -4.6368 O.2     1  UNL1       -0.2698
     11 N          59.8310   94.6885   -5.3160 N.am    1  UNL1       -0.2804
     12 H          59.7571   94.8126   -6.2898 H       1  UNL1        0.1552
     13 C          57.0463   94.9220   -1.6732 C.ar    1  UNL1        0.0031
     14 C          56.0308   93.8400   -1.8921 C.ar    1  UNL1        0.0010
     15 C          54.5684   94.1738   -1.8971 C.ar    1  UNL1        0.0114
     16 C          54.1215   95.5896   -1.6831 C.ar    1  UNL1        0.0577
     17 CL         52.6591   95.9234   -1.6882 Cl      1  UNL1       -0.0822
     18 C          55.1371   96.6716   -1.4642 C.ar    1  UNL1        0.0114
     19 C          56.5994   96.3378   -1.4592 C.ar    1  UNL1        0.0010
     20 C          59.2047   94.2870   -0.3740 C.ar    1  UNL1        0.1407
     21 N          59.7900   95.2969    0.5681 N.ar    1  UNL1       -0.2254
     22 C          60.3847   94.5573    1.7296 C.ar    1  UNL1        0.1189
     23 C          60.1670   93.0902    1.5054 C.ar    1  UNL1        0.0945
     24 N          59.4378   92.9231    0.2053 N.ar    1  UNL1       -0.3361
     25 H          59.1607   92.0684   -0.1971 H       1  UNL1        0.1674
     26 N          64.2561   93.2665   -1.5608 N.pl3   1  UNL1       -0.3339
     27 H          64.7891   92.4467   -1.6754 H       1  UNL1        0.1468
     28 N          64.9989   95.9583    1.9680 N.3     1  UNL1       -0.2726
     29 C          64.5024   94.5594    2.1833 C.3     1  UNL1        0.0738
     30 C          64.2548   93.6620    1.0070 C.3     1  UNL1        0.0368
     31 C          64.5037   94.1638   -0.3845 C.3     1  UNL1        0.0718
     32 C          65.0003   95.5628   -0.5998 C.3     1  UNL1        0.0368
     33 C          65.2479   96.4600    0.5765 C.3     1  UNL1        0.0738
     34 C          65.3760   96.2707    4.5195 C.3     1  UNL1        0.0188
     35 C          65.2465   96.8555    3.1443 C.3     1  UNL1        0.0721
@<TRIPOS>BOND
     1    34    35    1
     2    35    28    1
     3    28    29    1
     4    29    30    1
     5    30    31    1
     6    31    26    1
     7    26     1    1
     8     1     2   ar
     9     2     3   ar
    10     3     4   ar
    11     4     5   ar
    12     5     6   ar
    13     5     7    1
    14     7     8    2
    15     8    13    1
    16    13    14   ar
    17    14    15   ar
    18    15    16   ar
    19    16    17    1
    20    16    18   ar
    21    18    19   ar
    22     8    20    1
    23    20    21   ar
    24    21    22   ar
    25    22    23   ar
    26    23    24   ar
    27     7     9    1
    28     9    10    2
    29     9    11   am
    30    31    32    1
    31    32    33    1
    32    33    28    1
    33     6     1   ar
    34    19    13   ar
    35    24    20   ar
    36    11     4    1
    37    26    27    1
    38    24    25    1
    39    11    12    1
