@<TRIPOS>MOLECULE
*****
 43 48 0 0 0
SMALL
GASTEIGER

@<TRIPOS>ATOM
      1 N          61.4465   93.9619   -0.0328 N.am    1  UNL1       -0.2223
      2 C          61.8248   93.3950    1.3035 C.2     1  UNL1        0.3219
      3 O          63.1887   93.4402    1.9263 O.2     1  UNL1       -0.2512
      4 N          60.5998   92.7749    1.9076 N.am    1  UNL1       -0.1907
      5 C          59.4644   92.9585    0.9447 C.2     1  UNL1        0.2529
      6 O          58.0535   92.4908    1.1456 O.2     1  UNL1       -0.2724
      7 C          59.9877   93.6921   -0.2546 C.3     1  UNL1        0.1391
      8 C          60.6507   94.4264   -1.3821 C.3     1  UNL1        0.0449
      9 C          59.8549   94.8209   -2.5908 C.3     1  UNL1        0.0746
     10 N          58.3962   94.4812   -2.6720 N.3     1  UNL1       -0.2676
     11 C          57.7332   93.7470   -1.5445 C.3     1  UNL1        0.0746
     12 C          58.5289   93.3524   -0.3358 C.3     1  UNL1        0.0449
     13 C          64.6193   93.8686   -4.1468 C.3     1  UNL1        0.0522
     14 C          63.9520   94.6268   -3.0378 C.ar    1  UNL1        0.0639
     15 C          63.0329   93.9152   -2.0898 C.ar    1  UNL1        0.0495
     16 C          62.3657   94.6735   -0.9808 C.ar    1  UNL1        0.1418
     17 N          62.6176   96.1434   -0.8199 N.ar    1  UNL1       -0.2086
     18 C          63.5367   96.8551   -1.7678 C.ar    1  UNL1        0.1997
     19 N          64.2039   96.0967   -2.8769 N.ar    1  UNL1       -0.2283
     20 C          60.5235   92.0913    3.2405 C.ar    1  UNL1        0.0622
     21 C          59.2654   92.1708    4.0533 C.ar    1  UNL1        0.0154
     22 C          59.1892   91.4872    5.3863 C.ar    1  UNL1        0.0013
     23 C          60.3711   90.7239    5.9064 C.ar    1  UNL1       -0.0002
     24 C          61.6293   90.6443    5.0936 C.ar    1  UNL1        0.0013
     25 C          61.7054   91.3280    3.7606 C.ar    1  UNL1        0.0154
     26 C          60.2948   90.0402    7.2394 C.ar    1  UNL1       -0.0040
     27 C          61.0114   90.6210    8.4223 C.ar    1  UNL1       -0.0003
     28 C          60.9352   89.9373    9.7552 C.ar    1  UNL1        0.0011
     29 C          60.1423   88.6728    9.9052 C.ar    1  UNL1        0.0137
     30 C          59.4257   88.0921    8.7224 C.ar    1  UNL1       -0.0031
     31 C          59.5019   88.7757    7.3895 C.ar    1  UNL1       -0.0218
     32 C          58.7853   88.1949    6.2066 C.3     1  UNL1        0.0310
     33 C          60.0661   87.9892   11.2382 C.2     1  UNL1        0.0729
     34 O          60.9000   86.7713   11.5052 O.co2   1  UNL1       -0.5446
     35 O          59.1558   88.5234   12.3042 O.co2   1  UNL1       -0.5446
     36 C          57.6004   94.8758   -3.8808 C.3     1  UNL1        0.1183
     37 C          57.3042   93.8633   -4.9470 C.ar    1  UNL1        0.0712
     38 N          56.1467   92.9226   -4.7874 N.ar    1  UNL1       -0.2471
     39 C          55.8506   91.9100   -5.8537 C.ar    1  UNL1        0.0985
     40 C          56.7118   91.8381   -7.0796 C.ar    1  UNL1        0.0203
     41 C          57.8693   92.7787   -7.2393 C.ar    1  UNL1       -0.0015
     42 C          58.1655   93.7913   -6.1731 C.ar    1  UNL1       -0.0069
     43 C          59.3230   94.7319   -6.3327 C.3     1  UNL1        0.0323
@<TRIPOS>UNITY_ATOM_ATTR
34 1
charge -1
@<TRIPOS>BOND
     1    13    14    1
     2    14    15   ar
     3    15    16   ar
     4    16     1    1
     5     1     2   am
     6     2     3    2
     7     2     4   am
     8     4    20    1
     9    20    21   ar
    10    21    22   ar
    11    22    23   ar
    12    23    26    1
    13    26    27   ar
    14    27    28   ar
    15    28    29   ar
    16    29    33    1
    17    33    34   ar
    18    33    35   ar
    19    29    30   ar
    20    30    31   ar
    21    31    32    1
    22    23    24   ar
    23    24    25   ar
    24     4     5   am
    25     5     6    2
    26     5     7    1
    27     7     8    1
    28     8     9    1
    29     9    10    1
    30    10    36    1
    31    36    37    1
    32    37    38   ar
    33    38    39   ar
    34    39    40   ar
    35    40    41   ar
    36    41    42   ar
    37    42    43    1
    38    10    11    1
    39    11    12    1
    40    16    17   ar
    41    17    18   ar
    42    18    19   ar
    43    19    14   ar
    44     7     1    1
    45    42    37   ar
    46    25    20   ar
    47    12     7    1
    48    31    26   ar
@<TRIPOS>MOLECULE
*****
 43 48 0 0 0
SMALL
GASTEIGER

@<TRIPOS>ATOM
      1 N          61.1212   93.9029    0.0441 N.am    1  UNL1       -0.2223
      2 C          61.5331   93.3449    1.3742 C.2     1  UNL1        0.3219
      3 O          62.9067   93.4149    1.9726 O.2     1  UNL1       -0.2512
      4 N          60.3299   92.7045    2.0008 N.am    1  UNL1       -0.1907
      5 C          59.1746   92.8667    1.0580 C.2     1  UNL1        0.2529
      6 O          57.7759   92.3748    1.2846 O.2     1  UNL1       -0.2724
      7 C          59.6636   93.6074   -0.1514 C.3     1  UNL1        0.1391
      8 C          60.2936   94.3512   -1.2914 C.3     1  UNL1        0.0449
      9 C          59.4697   94.7298   -2.4863 C.3     1  UNL1        0.0746
     10 N          58.0159   94.3646   -2.5411 N.3     1  UNL1       -0.2676
     11 C          57.3859   93.6207   -1.4011 C.3     1  UNL1        0.0746
     12 C          58.2098   93.2421   -0.2062 C.3     1  UNL1        0.0449
     13 C          64.4108   93.8233   -3.9774 C.3     1  UNL1        0.0522
     14 C          63.6556   94.5891   -2.9318 C.ar    1  UNL1        0.0639
     15 C          62.7660   93.8631   -1.9666 C.ar    1  UNL1        0.0495
     16 C          62.0108   94.6289   -0.9211 C.ar    1  UNL1        0.1418
     17 N          62.1452   96.1207   -0.8407 N.ar    1  UNL1       -0.2086
     18 C          63.0347   96.8467   -1.8058 C.ar    1  UNL1        0.1997
     19 N          63.7900   96.0809   -2.8514 N.ar    1  UNL1       -0.2283
     20 C          60.2893   92.0218    3.3358 C.ar    1  UNL1        0.0622
     21 C          59.0244   92.0258    4.1420 C.ar    1  UNL1        0.0154
     22 C          58.9838   91.3430    5.4770 C.ar    1  UNL1        0.0013
     23 C          60.2081   90.6564    6.0058 C.ar    1  UNL1       -0.0002
     24 C          61.4731   90.6525    5.1996 C.ar    1  UNL1        0.0013
     25 C          61.5136   91.3352    3.8646 C.ar    1  UNL1        0.0154
     26 C          60.1675   89.9737    7.3408 C.ar    1  UNL1       -0.0040
     27 C          60.7613   90.6439    8.5443 C.ar    1  UNL1       -0.0003
     28 C          60.7207   89.9611    9.8793 C.ar    1  UNL1        0.0011
     29 C          60.0863   88.6083   10.0108 C.ar    1  UNL1        0.0137
     30 C          59.4925   87.9381    8.8073 C.ar    1  UNL1       -0.0031
     31 C          59.5331   88.6208    7.4724 C.ar    1  UNL1       -0.0218
     32 C          58.9393   87.9506    6.2689 C.3     1  UNL1        0.0310
     33 C          60.0457   87.9255   11.3458 C.2     1  UNL1        0.0729
     34 O          60.8557   86.6848   11.5786 O.co2   1  UNL1       -0.5446
     35 O          59.1949   88.4837   12.4481 O.co2   1  UNL1       -0.5446
     36 C          57.1920   94.7432   -3.7361 C.3     1  UNL1        0.1183
     37 C          55.8391   95.3631   -3.5484 C.ar    1  UNL1        0.0712
     38 N          55.4494   95.9229   -2.2124 N.ar    1  UNL1       -0.2471
     39 C          54.0964   96.5428   -2.0247 C.ar    1  UNL1        0.0985
     40 C          53.1331   96.6030   -3.1729 C.ar    1  UNL1        0.0203
     41 C          53.5228   96.0432   -4.5089 C.ar    1  UNL1       -0.0015
     42 C          54.8757   95.4233   -4.6967 C.ar    1  UNL1       -0.0069
     43 C          55.2654   94.8636   -6.0326 C.3     1  UNL1        0.0323
@<TRIPOS>UNITY_ATOM_ATTR
34 1
charge -1
@<TRIPOS>BOND
     1    13    14    1
     2    14    15   ar
     3    15    16   ar
     4    16     1    1
     5     1     2   am
     6     2     3    2
     7     2     4   am
     8     4    20    1
     9    20    21   ar
    10    21    22   ar
    11    22    23   ar
    12    23    26    1
    13    26    27   ar
    14    27    28   ar
    15    28    29   ar
    16    29    33    1
    17    33    34   ar
    18    33    35   ar
    19    29    30   ar
    20    30    31   ar
    21    31    32    1
    22    23    24   ar
    23    24    25   ar
    24     4     5   am
    25     5     6    2
    26     5     7    1
    27     7     8    1
    28     8     9    1
    29     9    10    1
    30    10    36    1
    31    36    37    1
    32    37    38   ar
    33    38    39   ar
    34    39    40   ar
    35    40    41   ar
    36    41    42   ar
    37    42    43    1
    38    10    11    1
    39    11    12    1
    40    16    17   ar
    41    17    18   ar
    42    18    19   ar
    43    19    14   ar
    44     7     1    1
    45    42    37   ar
    46    25    20   ar
    47    12     7    1
    48    31    26   ar
