@<TRIPOS>MOLECULE
*****
 30 33 0 0 0
SMALL
GASTEIGER

@<TRIPOS>ATOM
      1 O          62.3146   89.7504   14.1396 O.2     1  UNL1       -0.2739
      2 C          62.1698   90.1321   12.6963 C.2     1  UNL1        0.2419
      3 N          63.2509   90.9188   12.0164 N.am    1  UNL1       -0.2580
      4 C          63.2460   91.3703   10.5859 C.3     1  UNL1        0.1030
      5 C          64.5187   92.1228   10.3331 C.3     1  UNL1        0.0526
      6 C          65.3102   92.1363   11.6072 C.ar    1  UNL1        0.0275
      7 C          66.6432   92.7300   11.9545 C.ar    1  UNL1        0.1440
      8 C          67.1925   92.5797   13.3421 C.ar    1  UNL1        0.0369
      9 C          66.4089   91.8356   14.3824 C.ar    1  UNL1        0.0044
     10 C          65.0760   91.2419   14.0352 C.ar    1  UNL1        0.0148
     11 C          64.5266   91.3922   12.6475 C.ar    1  UNL1        0.0528
     12 C          60.9438   89.7269   11.9328 C.3     1  UNL1        0.2068
     13 C          60.9631   88.4899   11.0846 C.2     1  UNL1        0.3580
     14 N          61.8472   87.3375   11.4591 N.2     1  UNL1       -0.0039
     15 C          61.8665   86.1004   10.6110 C.2     1  UNL1        0.3159
     16 C          61.0017   86.0159    9.3883 C.3     1  UNL1        0.2333
     17 C          60.1176   87.1683    9.0138 C.2     1  UNL1        0.3644
     18 O          59.2528   87.0837    7.7910 O.2     1  UNL1       -0.2422
     19 N          60.0983   88.4054    9.8620 N.am    1  UNL1        0.0289
     20 N          62.7506   84.9480   10.9855 N.pl3   1  UNL1       -0.1888
     21 C          62.9900   84.6252   12.4306 C.3     1  UNL1        0.2343
     22 C          63.8742   83.4728   12.8051 C.3     1  UNL1        0.1929
     23 O          64.5189   82.6432   11.7345 O.3     1  UNL1       -0.3449
     24 C          64.2794   82.9661   10.2893 C.3     1  UNL1        0.1929
     25 C          63.3953   84.1185    9.9148 C.3     1  UNL1        0.2343
     26 O          67.4268   93.4741   10.9141 O.3     1  UNL1       -0.4047
     27 C          67.9946   92.7403    9.7356 C.3     1  UNL1        0.5753
     28 F          68.5625   92.0064    8.5570 F       1  UNL1       -0.1328
     29 F          67.4262   93.7791    8.8149 F       1  UNL1       -0.1328
     30 F          68.5630   91.7015   10.6563 F       1  UNL1       -0.1328
@<TRIPOS>BOND
     1     1     2    2
     2     2    12    1
     3    12    13    1
     4    13    14    1
     5    14    15    2
     6    15    20    1
     7    20    21    1
     8    21    22    1
     9    22    23    1
    10    23    24    1
    11    24    25    1
    12    15    16    1
    13    16    17    1
    14    17    18    2
    15    17    19    1
    16     2     3   am
    17     3     4    1
    18     4     5    1
    19     5     6    1
    20     6     7   ar
    21     7    26    1
    22    26    27    1
    23    27    28    1
    24    27    29    1
    25    27    30    1
    26     7     8   ar
    27     8     9   ar
    28     9    10   ar
    29    10    11   ar
    30    19    13    2
    31    11     3    1
    32    25    20    1
    33    11     6   ar
@<TRIPOS>MOLECULE
*****
 30 33 0 0 0
SMALL
GASTEIGER

@<TRIPOS>ATOM
      1 O          62.8813   90.8862    9.7118 O.2     1  UNL1       -0.2739
      2 C          62.6203   90.1667   11.0018 C.2     1  UNL1        0.2419
      3 N          63.3818   90.5433   12.2381 N.am    1  UNL1       -0.2580
      4 C          63.2298   89.9166   13.5924 C.3     1  UNL1        0.1030
      5 C          64.1830   90.5987   14.5283 C.3     1  UNL1        0.0526
      6 C          64.9242   91.6470   13.7525 C.ar    1  UNL1        0.0275
      7 C          65.9859   92.6283   14.1521 C.ar    1  UNL1        0.1440
      8 C          66.5525   93.5753   13.1362 C.ar    1  UNL1        0.0369
      9 C          66.0572   93.5411   11.7207 C.ar    1  UNL1        0.0044
     10 C          64.9955   92.5598   11.3211 C.ar    1  UNL1        0.0148
     11 C          64.4289   91.6128   12.3370 C.ar    1  UNL1        0.0528
     12 C          61.5977   89.0706   11.0556 C.3     1  UNL1        0.2068
     13 C          62.0069   87.6500   10.8014 C.2     1  UNL1        0.3580
     14 N          62.3163   86.7410   11.9538 N.2     1  UNL1       -0.0039
     15 C          62.7255   85.3204   11.6996 C.2     1  UNL1        0.3159
     16 C          62.8253   84.8090   10.2930 C.3     1  UNL1        0.2333
     17 C          62.5160   85.7180    9.1407 C.2     1  UNL1        0.3644
     18 O          62.6158   85.2065    7.7340 O.2     1  UNL1       -0.2422
     19 N          62.1068   87.1386    9.3948 N.am    1  UNL1        0.0289
     20 N          63.0348   84.4114   12.8519 N.pl3   1  UNL1       -0.1888
     21 C          62.6859   82.9547   12.7727 C.3     1  UNL1        0.2343
     22 C          62.9953   82.0457   13.9251 C.3     1  UNL1        0.1929
     23 O          63.6536   82.5933   15.1567 O.3     1  UNL1       -0.3449
     24 C          64.0025   84.0501   15.2359 C.3     1  UNL1        0.1929
     25 C          63.6931   84.9592   14.0835 C.3     1  UNL1        0.2343
     26 O          66.4811   92.6625   15.5676 O.3     1  UNL1       -0.4047
     27 C          67.9369   92.4477   15.8582 C.3     1  UNL1        0.5753
     28 F          69.3927   92.2327   16.1489 F       1  UNL1       -0.1328
     29 F          68.0656   93.8829   16.2747 F       1  UNL1       -0.1328
     30 F          67.8082   91.0124   15.4418 F       1  UNL1       -0.1328
@<TRIPOS>BOND
     1     1     2    2
     2     2    12    1
     3    12    13    1
     4    13    14    1
     5    14    15    2
     6    15    20    1
     7    20    21    1
     8    21    22    1
     9    22    23    1
    10    23    24    1
    11    24    25    1
    12    15    16    1
    13    16    17    1
    14    17    18    2
    15    17    19    1
    16     2     3   am
    17     3     4    1
    18     4     5    1
    19     5     6    1
    20     6     7   ar
    21     7    26    1
    22    26    27    1
    23    27    28    1
    24    27    29    1
    25    27    30    1
    26     7     8   ar
    27     8     9   ar
    28     9    10   ar
    29    10    11   ar
    30    19    13    2
    31    11     3    1
    32    25    20    1
    33    11     6   ar
@<TRIPOS>MOLECULE
*****
 30 33 0 0 0
SMALL
GASTEIGER

@<TRIPOS>ATOM
      1 O          63.8986   88.1293   14.6363 O.2     1  UNL1       -0.2739
      2 C          63.4791   89.1333   13.6039 C.2     1  UNL1        0.2419
      3 N          62.9562   88.6703   12.2764 N.am    1  UNL1       -0.2580
      4 C          62.5012   89.5524   11.1518 C.3     1  UNL1        0.1030
      5 C          62.0603   88.6712   10.0208 C.3     1  UNL1        0.0526
      6 C          62.2429   87.2445   10.4465 C.ar    1  UNL1        0.0275
      7 C          61.9765   85.9458    9.7448 C.ar    1  UNL1        0.1440
      8 C          62.2638   84.6466   10.4372 C.ar    1  UNL1        0.0369
      9 C          62.8175   84.6460   11.8312 C.ar    1  UNL1        0.0044
     10 C          63.0839   85.9447   12.5329 C.ar    1  UNL1        0.0148
     11 C          62.7966   87.2439   11.8405 C.ar    1  UNL1        0.0528
     12 C          63.5824   90.6004   13.8991 C.3     1  UNL1        0.2068
     13 C          64.9036   91.2994   13.7735 C.2     1  UNL1        0.3580
     14 N          65.2535   92.0198   12.5052 N.2     1  UNL1       -0.0039
     15 C          66.5747   92.7189   12.3797 C.2     1  UNL1        0.3159
     16 C          67.5460   92.6975   13.5225 C.3     1  UNL1        0.2333
     17 C          67.1961   91.9771   14.7908 C.2     1  UNL1        0.3644
     18 O          68.1675   91.9557   15.9337 O.2     1  UNL1       -0.2422
     19 N          65.8749   91.2780   14.9163 N.am    1  UNL1        0.0289
     20 N          66.9245   93.4393   11.1114 N.pl3   1  UNL1       -0.1888
     21 C          67.6684   92.7236   10.0231 C.3     1  UNL1        0.2343
     22 C          68.0182   93.4440    8.7548 C.3     1  UNL1        0.1929
     23 O          67.6242   94.8801    8.5748 O.3     1  UNL1       -0.3449
     24 C          66.8803   95.5958    9.6631 C.3     1  UNL1        0.1929
     25 C          66.5305   94.8754   10.9315 C.3     1  UNL1        0.2343
     26 O          61.4228   85.9463    8.3507 O.3     1  UNL1       -0.4047
     27 C          62.1282   85.1915    7.2633 C.3     1  UNL1        0.5753
     28 F          62.8336   84.4366    6.1757 F       1  UNL1       -0.1328
     29 F          63.4519   85.5774    7.8540 F       1  UNL1       -0.1328
     30 F          60.8046   84.8056    6.6725 F       1  UNL1       -0.1328
@<TRIPOS>BOND
     1     1     2    2
     2     2    12    1
     3    12    13    1
     4    13    14    1
     5    14    15    2
     6    15    20    1
     7    20    21    1
     8    21    22    1
     9    22    23    1
    10    23    24    1
    11    24    25    1
    12    15    16    1
    13    16    17    1
    14    17    18    2
    15    17    19    1
    16     2     3   am
    17     3     4    1
    18     4     5    1
    19     5     6    1
    20     6     7   ar
    21     7    26    1
    22    26    27    1
    23    27    28    1
    24    27    29    1
    25    27    30    1
    26     7     8   ar
    27     8     9   ar
    28     9    10   ar
    29    10    11   ar
    30    19    13    2
    31    11     3    1
    32    25    20    1
    33    11     6   ar
@<TRIPOS>MOLECULE
*****
 30 33 0 0 0
SMALL
GASTEIGER

@<TRIPOS>ATOM
      1 O          64.7164   88.7277   14.9673 O.2     1  UNL1       -0.2739
      2 C          63.9541   88.8379   13.6803 C.2     1  UNL1        0.2419
      3 N          63.4709   87.5990   12.9863 N.am    1  UNL1       -0.2580
      4 C          62.7005   87.5525   11.7001 C.3     1  UNL1        0.1030
      5 C          62.4267   86.1138   11.3756 C.3     1  UNL1        0.0526
      6 C          63.0280   85.2712   12.4612 C.ar    1  UNL1        0.0275
      7 C          63.0712   83.7867   12.6719 C.ar    1  UNL1        0.1440
      8 C          63.7598   83.2202   13.8780 C.ar    1  UNL1        0.0369
      9 C          64.4052   84.1381   14.8735 C.ar    1  UNL1        0.0044
     10 C          64.3620   85.6225   14.6628 C.ar    1  UNL1        0.0148
     11 C          63.6734   86.1891   13.4567 C.ar    1  UNL1        0.0528
     12 C          63.6750   90.1872   13.0871 C.3     1  UNL1        0.2068
     13 C          64.6271   91.3219   13.3235 C.2     1  UNL1        0.3580
     14 N          65.0696   92.1811   12.1763 N.2     1  UNL1       -0.0039
     15 C          66.0217   93.3158   12.4127 C.2     1  UNL1        0.3159
     16 C          66.5313   93.5913   13.7963 C.3     1  UNL1        0.2333
     17 C          66.0888   92.7321   14.9435 C.2     1  UNL1        0.3644
     18 O          66.5985   93.0077   16.3272 O.2     1  UNL1       -0.2422
     19 N          65.1367   91.5974   14.7071 N.am    1  UNL1        0.0289
     20 N          66.4642   94.1750   11.2656 N.pl3   1  UNL1       -0.1888
     21 C          66.2701   95.6612   11.3232 C.3     1  UNL1        0.2343
     22 C          66.7126   96.5204   10.1760 C.3     1  UNL1        0.1929
     23 O          67.3491   95.8933    8.9712 O.3     1  UNL1       -0.3449
     24 C          67.5432   94.4070    8.9136 C.3     1  UNL1        0.1929
     25 C          67.1007   93.5478   10.0607 C.3     1  UNL1        0.2343
     26 O          62.4259   82.8688   11.6764 O.3     1  UNL1       -0.4047
     27 C          62.5714   81.3830   11.8219 C.3     1  UNL1        0.5753
     28 F          62.7170   79.8972   11.9675 F       1  UNL1       -0.1328
     29 F          61.5697   81.3943   12.9384 F       1  UNL1       -0.1328
     30 F          63.5731   81.3718   10.7055 F       1  UNL1       -0.1328
@<TRIPOS>BOND
     1     1     2    2
     2     2    12    1
     3    12    13    1
     4    13    14    1
     5    14    15    2
     6    15    20    1
     7    20    21    1
     8    21    22    1
     9    22    23    1
    10    23    24    1
    11    24    25    1
    12    15    16    1
    13    16    17    1
    14    17    18    2
    15    17    19    1
    16     2     3   am
    17     3     4    1
    18     4     5    1
    19     5     6    1
    20     6     7   ar
    21     7    26    1
    22    26    27    1
    23    27    28    1
    24    27    29    1
    25    27    30    1
    26     7     8   ar
    27     8     9   ar
    28     9    10   ar
    29    10    11   ar
    30    19    13    2
    31    11     3    1
    32    25    20    1
    33    11     6   ar
@<TRIPOS>MOLECULE
*****
 30 33 0 0 0
SMALL
GASTEIGER

@<TRIPOS>ATOM
      1 O          61.6059   91.1179   11.6794 O.2     1  UNL1       -0.2739
      2 C          62.2889   89.8632   12.1368 C.2     1  UNL1        0.2419
      3 N          62.1429   88.5981   11.3442 N.am    1  UNL1       -0.2580
      4 C          62.7634   87.2734   11.6759 C.3     1  UNL1        0.1030
      5 C          62.3547   86.2922   10.6174 C.3     1  UNL1        0.0526
      6 C          61.4817   87.0106    9.6316 C.ar    1  UNL1        0.0275
      7 C          60.7891   86.5511    8.3830 C.ar    1  UNL1        0.1440
      8 C          59.9655   87.5168    7.5836 C.ar    1  UNL1        0.0369
      9 C          59.8346   88.9419    8.0327 C.ar    1  UNL1        0.0044
     10 C          60.5273   89.4014    9.2813 C.ar    1  UNL1        0.0148
     11 C          61.3508   88.4357   10.0808 C.ar    1  UNL1        0.0528
     12 C          63.1180   89.8737   13.3869 C.3     1  UNL1        0.2068
     13 C          64.1762   90.9198   13.5763 C.2     1  UNL1        0.3580
     14 N          64.7845   91.5958   12.3835 N.2     1  UNL1       -0.0039
     15 C          65.8427   92.6420   12.5729 C.2     1  UNL1        0.3159
     16 C          66.2925   93.0120   13.9552 C.3     1  UNL1        0.2333
     17 C          65.6841   92.3360   15.1480 C.2     1  UNL1        0.3644
     18 O          66.1339   92.7061   16.5304 O.2     1  UNL1       -0.2422
     19 N          64.6259   91.2898   14.9586 N.am    1  UNL1        0.0289
     20 N          66.4511   93.3180   11.3801 N.pl3   1  UNL1       -0.1888
     21 C          66.1622   94.7649   11.1097 C.3     1  UNL1        0.2343
     22 C          66.7706   95.4409    9.9169 C.3     1  UNL1        0.1929
     23 O          67.6678   94.6701    8.9944 O.3     1  UNL1       -0.3449
     24 C          67.9566   93.2232    9.2649 C.3     1  UNL1        0.1929
     25 C          67.3483   92.5471   10.4577 C.3     1  UNL1        0.2343
     26 O          60.9200   85.1259    7.9338 O.3     1  UNL1       -0.4047
     27 C          61.8741   84.7714    6.8320 C.3     1  UNL1        0.5753
     28 F          62.8282   84.4169    5.7302 F       1  UNL1       -0.1328
     29 F          63.0147   85.3016    7.6492 F       1  UNL1       -0.1328
     30 F          60.7335   84.2412    6.0149 F       1  UNL1       -0.1328
@<TRIPOS>BOND
     1     1     2    2
     2     2    12    1
     3    12    13    1
     4    13    14    1
     5    14    15    2
     6    15    20    1
     7    20    21    1
     8    21    22    1
     9    22    23    1
    10    23    24    1
    11    24    25    1
    12    15    16    1
    13    16    17    1
    14    17    18    2
    15    17    19    1
    16     2     3   am
    17     3     4    1
    18     4     5    1
    19     5     6    1
    20     6     7   ar
    21     7    26    1
    22    26    27    1
    23    27    28    1
    24    27    29    1
    25    27    30    1
    26     7     8   ar
    27     8     9   ar
    28     9    10   ar
    29    10    11   ar
    30    19    13    2
    31    11     3    1
    32    25    20    1
    33    11     6   ar
@<TRIPOS>MOLECULE
*****
 30 33 0 0 0
SMALL
GASTEIGER

@<TRIPOS>ATOM
      1 O          62.5150   89.7397   11.8880 O.2     1  UNL1       -0.2739
      2 C          63.2599   89.4340   13.1535 C.2     1  UNL1        0.2419
      3 N          63.5767   88.0125   13.5128 N.am    1  UNL1       -0.2580
      4 C          64.3108   87.5555   14.7384 C.3     1  UNL1        0.1030
      5 C          64.4028   86.0590   14.6925 C.3     1  UNL1        0.0526
      6 C          63.7255   85.5912   13.4385 C.ar    1  UNL1        0.0275
      7 C          63.5078   84.2218   12.8664 C.ar    1  UNL1        0.1440
      8 C          62.7795   84.0598   11.5651 C.ar    1  UNL1        0.0369
      9 C          62.2689   85.2672   10.8360 C.ar    1  UNL1        0.0044
     10 C          62.4866   86.6365   11.4081 C.ar    1  UNL1        0.0148
     11 C          63.2150   86.7985   12.7094 C.ar    1  UNL1        0.0528
     12 C          63.6880   90.5499   14.0600 C.3     1  UNL1        0.2068
     13 C          65.0272   91.1985   13.8701 C.2     1  UNL1        0.3580
     14 N          65.4013   91.7696   12.5345 N.2     1  UNL1       -0.0039
     15 C          66.7405   92.4182   12.3446 C.2     1  UNL1        0.3159
     16 C          67.7054   92.4957   13.4904 C.3     1  UNL1        0.2333
     17 C          67.3313   91.9245   14.8260 C.2     1  UNL1        0.3644
     18 O          68.2963   92.0020   15.9718 O.2     1  UNL1       -0.2422
     19 N          65.9921   91.2760   15.0159 N.am    1  UNL1        0.0289
     20 N          67.1146   92.9893   11.0090 N.pl3   1  UNL1       -0.1888
     21 C          66.5640   94.3171   10.5803 C.3     1  UNL1        0.2343
     22 C          66.9381   94.8882    9.2447 C.3     1  UNL1        0.1929
     23 O          67.8629   94.1315    8.3378 O.3     1  UNL1       -0.3449
     24 C          68.4135   92.8037    8.7666 C.3     1  UNL1        0.1929
     25 C          68.0394   92.2326   10.1022 C.3     1  UNL1        0.2343
     26 O          64.0183   83.0145   13.5955 O.3     1  UNL1       -0.4047
     27 C          63.0735   81.9141   13.9781 C.3     1  UNL1        0.5753
     28 F          62.1285   80.8137   14.3606 F       1  UNL1       -0.1328
     29 F          62.2058   82.9076   14.6923 F       1  UNL1       -0.1328
     30 F          63.9412   80.9207   13.2638 F       1  UNL1       -0.1328
@<TRIPOS>BOND
     1     1     2    2
     2     2    12    1
     3    12    13    1
     4    13    14    1
     5    14    15    2
     6    15    20    1
     7    20    21    1
     8    21    22    1
     9    22    23    1
    10    23    24    1
    11    24    25    1
    12    15    16    1
    13    16    17    1
    14    17    18    2
    15    17    19    1
    16     2     3   am
    17     3     4    1
    18     4     5    1
    19     5     6    1
    20     6     7   ar
    21     7    26    1
    22    26    27    1
    23    27    28    1
    24    27    29    1
    25    27    30    1
    26     7     8   ar
    27     8     9   ar
    28     9    10   ar
    29    10    11   ar
    30    19    13    2
    31    11     3    1
    32    25    20    1
    33    11     6   ar
@<TRIPOS>MOLECULE
*****
 30 33 0 0 0
SMALL
GASTEIGER

@<TRIPOS>ATOM
      1 O          63.8027   88.0651   14.3654 O.2     1  UNL1       -0.2739
      2 C          63.4219   89.2580   13.5397 C.2     1  UNL1        0.2419
      3 N          62.8331   89.0674   12.1733 N.am    1  UNL1       -0.2580
      4 C          62.4062   90.1588   11.2371 C.3     1  UNL1        0.1030
      5 C          61.8770   89.5178    9.9885 C.3     1  UNL1        0.0526
      6 C          61.9768   88.0302   10.1530 C.ar    1  UNL1        0.0275
      7 C          61.6060   86.8931    9.2477 C.ar    1  UNL1        0.1440
      8 C          61.8260   85.4777    9.6928 C.ar    1  UNL1        0.0369
      9 C          62.4169   85.1993   11.0431 C.ar    1  UNL1        0.0044
     10 C          62.7877   86.3364   11.9484 C.ar    1  UNL1        0.0148
     11 C          62.5677   87.7518   11.5033 C.ar    1  UNL1        0.0528
     12 C          63.6299   90.6417   14.0804 C.3     1  UNL1        0.2068
     13 C          64.9570   91.3206   13.9131 C.2     1  UNL1        0.3580
     14 N          65.2932   92.0018   12.6197 N.2     1  UNL1       -0.0039
     15 C          66.6203   92.6807   12.4524 C.2     1  UNL1        0.3159
     16 C          67.6111   92.6784   13.5786 C.3     1  UNL1        0.2333
     17 C          67.2748   91.9972   14.8720 C.2     1  UNL1        0.3644
     18 O          68.2657   91.9950   15.9983 O.2     1  UNL1       -0.2422
     19 N          65.9477   91.3183   15.0393 N.am    1  UNL1        0.0289
     20 N          66.9566   93.3619   11.1590 N.pl3   1  UNL1       -0.1888
     21 C          66.5394   94.7844   10.9300 C.3     1  UNL1        0.2343
     22 C          66.8757   95.4656    9.6366 C.3     1  UNL1        0.1929
     23 O          67.6290   94.7242    8.5722 O.3     1  UNL1       -0.3449
     24 C          68.0462   93.3017    8.8013 C.3     1  UNL1        0.1929
     25 C          67.7100   92.6205   10.0947 C.3     1  UNL1        0.2343
     26 O          61.0151   87.1715    7.8974 O.3     1  UNL1       -0.4047
     27 C          59.6147   87.6969    7.7854 C.3     1  UNL1        0.5753
     28 F          58.2141   88.2223    7.6733 F       1  UNL1       -0.1328
     29 F          59.0789   86.3533    8.1825 F       1  UNL1       -0.1328
     30 F          60.1504   89.0404    7.3883 F       1  UNL1       -0.1328
@<TRIPOS>BOND
     1     1     2    2
     2     2    12    1
     3    12    13    1
     4    13    14    1
     5    14    15    2
     6    15    20    1
     7    20    21    1
     8    21    22    1
     9    22    23    1
    10    23    24    1
    11    24    25    1
    12    15    16    1
    13    16    17    1
    14    17    18    2
    15    17    19    1
    16     2     3   am
    17     3     4    1
    18     4     5    1
    19     5     6    1
    20     6     7   ar
    21     7    26    1
    22    26    27    1
    23    27    28    1
    24    27    29    1
    25    27    30    1
    26     7     8   ar
    27     8     9   ar
    28     9    10   ar
    29    10    11   ar
    30    19    13    2
    31    11     3    1
    32    25    20    1
    33    11     6   ar
@<TRIPOS>MOLECULE
*****
 30 33 0 0 0
SMALL
GASTEIGER

@<TRIPOS>ATOM
      1 O          62.4248   85.1886   15.7517 O.2     1  UNL1       -0.2739
      2 C          63.4876   85.2706   14.6965 C.2     1  UNL1        0.2419
      3 N          63.7008   84.1219   13.7557 N.am    1  UNL1       -0.2580
      4 C          64.7194   84.0600   12.6564 C.3     1  UNL1        0.1030
      5 C          64.5809   82.7333   11.9704 C.3     1  UNL1        0.0526
      6 C          63.4766   81.9753   12.6456 C.ar    1  UNL1        0.0275
      7 C          62.8961   80.6145   12.3983 C.ar    1  UNL1        0.1440
      8 C          61.7716   80.1120   13.2545 C.ar    1  UNL1        0.0369
      9 C          61.2277   80.9702   14.3579 C.ar    1  UNL1        0.0044
     10 C          61.8082   82.3310   14.6052 C.ar    1  UNL1        0.0148
     11 C          62.9326   82.8335   13.7491 C.ar    1  UNL1        0.0528
     12 C          64.3374   86.5014   14.5821 C.3     1  UNL1        0.2068
     13 C          63.8950   87.6401   13.7116 C.2     1  UNL1        0.3580
     14 N          63.0604   87.3731   12.4942 N.2     1  UNL1       -0.0039
     15 C          62.6179   88.5117   11.6237 C.2     1  UNL1        0.3159
     16 C          63.0101   89.9173   11.9707 C.3     1  UNL1        0.2333
     17 C          63.8447   90.1843   13.1882 C.2     1  UNL1        0.3644
     18 O          64.2368   91.5900   13.5352 O.2     1  UNL1       -0.2422
     19 N          64.2871   89.0457   14.0587 N.am    1  UNL1        0.0289
     20 N          61.7834   88.2447   10.4063 N.pl3   1  UNL1       -0.1888
     21 C          60.9459   89.3402    9.8160 C.3     1  UNL1        0.2343
     22 C          60.1114   89.0732    8.5986 C.3     1  UNL1        0.1929
     23 O          60.1142   87.7107    7.9714 O.3     1  UNL1       -0.3449
     24 C          60.9517   86.6150    8.5617 C.3     1  UNL1        0.1929
     25 C          61.7863   86.8820    9.7791 C.3     1  UNL1        0.2343
     26 O          63.4400   79.7563   11.2949 O.3     1  UNL1       -0.4047
     27 C          62.6716   79.6029   10.0159 C.3     1  UNL1        0.5753
     28 F          61.9031   79.4495    8.7368 F       1  UNL1       -0.1328
     29 F          62.9095   81.0497    9.6994 F       1  UNL1       -0.1328
     30 F          62.4337   78.1561   10.3323 F       1  UNL1       -0.1328
@<TRIPOS>BOND
     1     1     2    2
     2     2    12    1
     3    12    13    1
     4    13    14    1
     5    14    15    2
     6    15    20    1
     7    20    21    1
     8    21    22    1
     9    22    23    1
    10    23    24    1
    11    24    25    1
    12    15    16    1
    13    16    17    1
    14    17    18    2
    15    17    19    1
    16     2     3   am
    17     3     4    1
    18     4     5    1
    19     5     6    1
    20     6     7   ar
    21     7    26    1
    22    26    27    1
    23    27    28    1
    24    27    29    1
    25    27    30    1
    26     7     8   ar
    27     8     9   ar
    28     9    10   ar
    29    10    11   ar
    30    19    13    2
    31    11     3    1
    32    25    20    1
    33    11     6   ar
@<TRIPOS>MOLECULE
*****
 30 33 0 0 0
SMALL
GASTEIGER

@<TRIPOS>ATOM
      1 O          62.4500   90.6578   11.6307 O.2     1  UNL1       -0.2739
      2 C          62.9909   89.7944   12.7315 C.2     1  UNL1        0.2419
      3 N          63.0435   88.3052   12.5597 N.am    1  UNL1       -0.2580
      4 C          63.5552   87.3189   13.5674 C.3     1  UNL1        0.1030
      5 C          63.4215   85.9450   12.9804 C.3     1  UNL1        0.0526
      6 C          62.8272   86.0821   11.6100 C.ar    1  UNL1        0.0275
      7 C          62.4686   85.0672   10.5653 C.ar    1  UNL1        0.1440
      8 C          61.8764   85.5110    9.2607 C.ar    1  UNL1        0.0369
      9 C          61.6427   86.9697    9.0006 C.ar    1  UNL1        0.0044
     10 C          62.0013   87.9846   10.0453 C.ar    1  UNL1        0.0148
     11 C          62.5936   87.5408   11.3500 C.ar    1  UNL1        0.0528
     12 C          63.4793   90.4202   14.0043 C.3     1  UNL1        0.2068
     13 C          64.6208   91.3929   13.9719 C.2     1  UNL1        0.3580
     14 N          65.1004   91.9430   12.6615 N.2     1  UNL1       -0.0039
     15 C          66.2419   92.9157   12.6291 C.2     1  UNL1        0.3159
     16 C          66.9036   93.3381   13.9072 C.3     1  UNL1        0.2333
     17 C          66.4239   92.7880   15.2177 C.2     1  UNL1        0.3644
     18 O          67.0858   93.2105   16.4958 O.2     1  UNL1       -0.2422
     19 N          65.2825   91.8153   15.2500 N.am    1  UNL1        0.0289
     20 N          66.7215   93.4658   11.3187 N.pl3   1  UNL1       -0.1888
     21 C          67.5180   92.5999   10.3882 C.3     1  UNL1        0.2343
     22 C          67.9976   93.1501    9.0778 C.3     1  UNL1        0.1929
     23 O          67.6808   94.5661    8.6978 O.3     1  UNL1       -0.3449
     24 C          66.8843   95.4321    9.6284 C.3     1  UNL1        0.1929
     25 C          66.4046   94.8819   10.9388 C.3     1  UNL1        0.2343
     26 O          62.7023   83.6085   10.8254 O.3     1  UNL1       -0.4047
     27 C          63.7983   83.1785   11.7548 C.3     1  UNL1        0.5753
     28 F          64.8943   82.7485   12.6842 F       1  UNL1       -0.1328
     29 F          64.8164   83.4900   10.6982 F       1  UNL1       -0.1328
     30 F          62.7802   82.8670   12.8113 F       1  UNL1       -0.1328
@<TRIPOS>BOND
     1     1     2    2
     2     2    12    1
     3    12    13    1
     4    13    14    1
     5    14    15    2
     6    15    20    1
     7    20    21    1
     8    21    22    1
     9    22    23    1
    10    23    24    1
    11    24    25    1
    12    15    16    1
    13    16    17    1
    14    17    18    2
    15    17    19    1
    16     2     3   am
    17     3     4    1
    18     4     5    1
    19     5     6    1
    20     6     7   ar
    21     7    26    1
    22    26    27    1
    23    27    28    1
    24    27    29    1
    25    27    30    1
    26     7     8   ar
    27     8     9   ar
    28     9    10   ar
    29    10    11   ar
    30    19    13    2
    31    11     3    1
    32    25    20    1
    33    11     6   ar
