@<TRIPOS>MOLECULE
*****
 24 26 0 0 0
SMALL
GASTEIGER

@<TRIPOS>ATOM
      1 S          61.2514   89.4199   10.6985 S.3     1  UNL1       -0.1088
      2 C          62.4251   90.2024   11.2089 C.ar    1  UNL1        0.0261
      3 C          63.1311   91.1701   10.3061 C.ar    1  UNL1        0.0077
      4 C          64.3047   91.9525   10.8164 C.ar    1  UNL1        0.0202
      5 C          64.7722   91.7672   12.2296 C.ar    1  UNL1        0.0893
      6 N          65.8916   92.3942   13.0068 N.ar    1  UNL1       -0.2245
      7 C          65.8774   91.8140   14.3899 C.ar    1  UNL1        0.1567
      8 N          66.8249   92.1587   15.5006 N.pl3   1  UNL1       -0.3375
      9 S          64.7492   90.8284   14.4676 S.2     1  UNL1       -0.0520
     10 C          64.0662   90.7995   13.1324 C.ar    1  UNL1        0.0502
     11 C          62.8926   90.0171   12.6220 C.ar    1  UNL1        0.0142
     12 H          67.5372   92.8219   15.3519 H       1  UNL1        0.1442
     13 H          66.7345   91.7218   16.3782 H       1  UNL1        0.1442
     14 C          61.4434   88.4014    9.6142 C.3     1  UNL1        0.0884
     15 C          63.0183   84.3089   10.6245 C.ar    1  UNL1        0.0756
     16 C          62.4270   85.1715   11.6998 C.ar    1  UNL1        0.0061
     17 C          61.9020   86.5357   11.3631 C.ar    1  UNL1       -0.0032
     18 C          61.9684   87.0372    9.9510 C.ar    1  UNL1       -0.0110
     19 C          62.5597   86.1746    8.8757 C.ar    1  UNL1       -0.0032
     20 C          63.0847   84.8105    9.2125 C.ar    1  UNL1        0.0061
     21 C          63.5433   82.9447   10.9613 C.2     1  UNL1        0.3413
     22 O          64.9543   82.5764   10.6101 O.2     1  UNL1       -0.2449
     23 C          63.1878   81.1386   12.7947 C.3     1  UNL1        0.2560
     24 O          62.6573   81.9489   11.6493 O.3     1  UNL1       -0.4413
@<TRIPOS>BOND
     1    23    24    1
     2    24    21    1
     3    21    22    2
     4    21    15    1
     5    15    16   ar
     6    16    17   ar
     7    17    18   ar
     8    18    14    1
     9    14     1    1
    10     1     2    1
    11     2     3   ar
    12     3     4   ar
    13     4     5   ar
    14     5     6   ar
    15     6     7   ar
    16     7     8    1
    17     7     9   ar
    18     9    10   ar
    19    10    11   ar
    20    18    19   ar
    21    19    20   ar
    22    20    15   ar
    23    11     2   ar
    24    10     5   ar
    25     8    12    1
    26     8    13    1
@<TRIPOS>MOLECULE
*****
 24 26 0 0 0
SMALL
GASTEIGER

@<TRIPOS>ATOM
      1 S          61.8308   87.3788    9.6549 S.3     1  UNL1       -0.1088
      2 C          62.3755   86.0486   10.0838 C.ar    1  UNL1        0.0261
      3 C          63.0723   85.1676    9.0897 C.ar    1  UNL1        0.0077
      4 C          63.6169   83.8375    9.5187 C.ar    1  UNL1        0.0202
      5 C          63.4647   83.3883   10.9417 C.ar    1  UNL1        0.0893
      6 N          63.8955   82.1389   11.6515 N.ar    1  UNL1       -0.2245
      7 C          63.4649   82.2478   13.0842 C.ar    1  UNL1        0.1567
      8 N          63.6914   81.2205   14.1535 N.pl3   1  UNL1       -0.3375
      9 S          62.7680   83.5644   13.2599 S.2     1  UNL1       -0.0520
     10 C          62.7678   84.2692   11.9358 C.ar    1  UNL1        0.0502
     11 C          62.2232   85.5994   11.5069 C.ar    1  UNL1        0.0142
     12 H          64.1619   80.3826   13.9393 H       1  UNL1        0.1442
     13 H          63.3697   81.3841   15.0694 H       1  UNL1        0.1442
     14 C          61.4310   88.3930   10.6851 C.3     1  UNL1        0.0884
     15 C          64.3755   91.5216   12.0238 C.ar    1  UNL1        0.0756
     16 C          63.8181   91.5630   10.6318 C.ar    1  UNL1        0.0061
     17 C          62.8367   90.5202   10.1856 C.ar    1  UNL1       -0.0032
     18 C          62.4125   89.4359   11.1313 C.ar    1  UNL1       -0.0110
     19 C          62.9699   89.3945   12.5233 C.ar    1  UNL1       -0.0032
     20 C          63.9514   90.4374   12.9696 C.ar    1  UNL1        0.0061
     21 C          65.3570   92.5645   12.4700 C.2     1  UNL1        0.3413
     22 O          66.0980   93.3810   11.4530 O.2     1  UNL1       -0.2449
     23 C          66.7841   93.5905   14.3832 C.3     1  UNL1        0.2560
     24 O          65.5976   92.7908   13.9332 O.3     1  UNL1       -0.4413
@<TRIPOS>BOND
     1    23    24    1
     2    24    21    1
     3    21    22    2
     4    21    15    1
     5    15    16   ar
     6    16    17   ar
     7    17    18   ar
     8    18    14    1
     9    14     1    1
    10     1     2    1
    11     2     3   ar
    12     3     4   ar
    13     4     5   ar
    14     5     6   ar
    15     6     7   ar
    16     7     8    1
    17     7     9   ar
    18     9    10   ar
    19    10    11   ar
    20    18    19   ar
    21    19    20   ar
    22    20    15   ar
    23    11     2   ar
    24    10     5   ar
    25     8    12    1
    26     8    13    1
@<TRIPOS>MOLECULE
*****
 24 26 0 0 0
SMALL
GASTEIGER

@<TRIPOS>ATOM
      1 S          62.6894   84.2315   15.4160 S.3     1  UNL1       -0.1088
      2 C          63.0263   83.9930   13.9738 C.ar    1  UNL1        0.0261
      3 C          63.9317   82.8595   13.5926 C.ar    1  UNL1        0.0077
      4 C          64.2685   82.6210   12.1505 C.ar    1  UNL1        0.0202
      5 C          63.6998   83.5161   11.0896 C.ar    1  UNL1        0.0893
      6 N          63.8523   83.5263    9.5973 N.ar    1  UNL1       -0.2245
      7 C          63.0411   84.6661    9.0563 C.ar    1  UNL1        0.1567
      8 N          62.9073   85.0453    7.6112 N.pl3   1  UNL1       -0.3375
      9 S          62.3873   85.3604   10.2142 S.2     1  UNL1       -0.0520
     10 C          62.7944   84.6496   11.4708 C.ar    1  UNL1        0.0502
     11 C          62.4576   84.8880   12.9129 C.ar    1  UNL1        0.0142
     12 H          63.3780   84.5254    6.9202 H       1  UNL1        0.1442
     13 H          62.3487   85.8140    7.3536 H       1  UNL1        0.1442
     14 C          63.5933   85.0721   16.2681 C.3     1  UNL1        0.0884
     15 C          63.7918   89.5220   15.6282 C.ar    1  UNL1        0.0756
     16 C          64.4419   88.5933   14.6460 C.ar    1  UNL1        0.0061
     17 C          64.3757   87.1100   14.8592 C.ar    1  UNL1       -0.0032
     18 C          63.6595   86.5555   16.0548 C.ar    1  UNL1       -0.0110
     19 C          63.0093   87.4842   17.0370 C.ar    1  UNL1       -0.0032
     20 C          63.0755   88.9674   16.8238 C.ar    1  UNL1        0.0061
     21 C          63.8580   91.0053   15.4149 C.2     1  UNL1        0.3413
     22 O          63.5232   91.9403   16.5390 O.2     1  UNL1       -0.2449
     23 C          65.6741   91.9899   13.8395 C.3     1  UNL1        0.2560
     24 O          64.2589   91.5535   14.0775 O.3     1  UNL1       -0.4413
@<TRIPOS>BOND
     1    23    24    1
     2    24    21    1
     3    21    22    2
     4    21    15    1
     5    15    16   ar
     6    16    17   ar
     7    17    18   ar
     8    18    14    1
     9    14     1    1
    10     1     2    1
    11     2     3   ar
    12     3     4   ar
    13     4     5   ar
    14     5     6   ar
    15     6     7   ar
    16     7     8    1
    17     7     9   ar
    18     9    10   ar
    19    10    11   ar
    20    18    19   ar
    21    19    20   ar
    22    20    15   ar
    23    11     2   ar
    24    10     5   ar
    25     8    12    1
    26     8    13    1
@<TRIPOS>MOLECULE
*****
 24 26 0 0 0
SMALL
GASTEIGER

@<TRIPOS>ATOM
      1 S          61.3007   89.0598    9.6117 S.3     1  UNL1       -0.1088
      2 C          62.1998   89.7745   10.5766 C.ar    1  UNL1        0.0261
      3 C          62.1480   89.4405   12.0381 C.ar    1  UNL1        0.0077
      4 C          63.0470   90.1551   13.0029 C.ar    1  UNL1        0.0202
      5 C          63.9978   91.2036   12.5064 C.ar    1  UNL1        0.0893
      6 N          64.9976   92.0686   13.2153 N.ar    1  UNL1       -0.2245
      7 C          65.6673   92.9371   12.1919 C.ar    1  UNL1        0.1567
      8 N          66.7353   93.9550   12.4623 N.pl3   1  UNL1       -0.3375
      9 S          65.0814   92.6089   10.8506 S.2     1  UNL1       -0.0520
     10 C          64.0496   91.5376   11.0450 C.ar    1  UNL1        0.0502
     11 C          63.1506   90.8230   10.0801 C.ar    1  UNL1        0.0142
     12 H          67.0564   94.0993   13.3817 H       1  UNL1        0.1442
     13 H          67.1152   94.4789   11.7204 H       1  UNL1        0.1442
     14 C          60.6865   87.7452    9.9916 C.3     1  UNL1        0.0884
     15 C          63.3141   84.1779   10.7789 C.ar    1  UNL1        0.0756
     16 C          62.5353   84.7980   11.9010 C.ar    1  UNL1        0.0061
     17 C          61.6594   85.9870   11.6385 C.ar    1  UNL1       -0.0032
     18 C          61.5624   86.5561   10.2541 C.ar    1  UNL1       -0.0110
     19 C          62.3412   85.9360    9.1321 C.ar    1  UNL1       -0.0032
     20 C          63.2171   84.7469    9.3945 C.ar    1  UNL1        0.0061
     21 C          64.1900   82.9888   11.0414 C.2     1  UNL1        0.3413
     22 O          64.8106   82.2468    9.8949 O.2     1  UNL1       -0.2449
     23 C          63.6466   81.4150   13.0358 C.3     1  UNL1        0.2560
     24 O          64.4452   82.5416   12.4502 O.3     1  UNL1       -0.4413
@<TRIPOS>BOND
     1    23    24    1
     2    24    21    1
     3    21    22    2
     4    21    15    1
     5    15    16   ar
     6    16    17   ar
     7    17    18   ar
     8    18    14    1
     9    14     1    1
    10     1     2    1
    11     2     3   ar
    12     3     4   ar
    13     4     5   ar
    14     5     6   ar
    15     6     7   ar
    16     7     8    1
    17     7     9   ar
    18     9    10   ar
    19    10    11   ar
    20    18    19   ar
    21    19    20   ar
    22    20    15   ar
    23    11     2   ar
    24    10     5   ar
    25     8    12    1
    26     8    13    1
@<TRIPOS>MOLECULE
*****
 24 26 0 0 0
SMALL
GASTEIGER

@<TRIPOS>ATOM
      1 S          62.4576   84.3319   15.5421 S.3     1  UNL1       -0.1088
      2 C          62.6416   83.6282   14.2301 C.ar    1  UNL1        0.0261
      3 C          62.9905   84.4132   13.0005 C.ar    1  UNL1        0.0077
      4 C          63.1745   83.7095   11.6887 C.ar    1  UNL1        0.0202
      5 C          63.0095   82.2208   11.6065 C.ar    1  UNL1        0.0893
      6 N          63.1278   81.2596   10.4610 N.ar    1  UNL1       -0.2245
      7 C          62.8519   79.8806   10.9827 C.ar    1  UNL1        0.1567
      8 N          62.8629   78.6148   10.1779 N.pl3   1  UNL1       -0.3375
      9 S          62.5632   79.9896   12.4507 S.2     1  UNL1       -0.0520
     10 C          62.6605   81.4359   12.8362 C.ar    1  UNL1        0.0502
     11 C          62.4766   82.1396   14.1480 C.ar    1  UNL1        0.0142
     12 H          63.0648   78.6456    9.2148 H       1  UNL1        0.1442
     13 H          62.6681   77.7533   10.6127 H       1  UNL1        0.1442
     14 C          63.5931   85.1053   16.1440 C.3     1  UNL1        0.0884
     15 C          63.8105   89.5679   15.6071 C.ar    1  UNL1        0.0756
     16 C          64.4287   88.6587   14.5867 C.ar    1  UNL1        0.0061
     17 C          64.3562   87.1712   14.7656 C.ar    1  UNL1       -0.0032
     18 C          63.6656   86.5929   15.9650 C.ar    1  UNL1       -0.0110
     19 C          63.0474   87.5021   16.9854 C.ar    1  UNL1       -0.0032
     20 C          63.1199   88.9896   16.8065 C.ar    1  UNL1        0.0061
     21 C          63.8830   91.0554   15.4281 C.2     1  UNL1        0.3413
     22 O          63.5078   91.9661   16.5594 O.2     1  UNL1       -0.2449
     23 C          65.7632   92.0332   13.9252 C.3     1  UNL1        0.2560
     24 O          64.3307   91.6322   14.1178 O.3     1  UNL1       -0.4413
@<TRIPOS>BOND
     1    23    24    1
     2    24    21    1
     3    21    22    2
     4    21    15    1
     5    15    16   ar
     6    16    17   ar
     7    17    18   ar
     8    18    14    1
     9    14     1    1
    10     1     2    1
    11     2     3   ar
    12     3     4   ar
    13     4     5   ar
    14     5     6   ar
    15     6     7   ar
    16     7     8    1
    17     7     9   ar
    18     9    10   ar
    19    10    11   ar
    20    18    19   ar
    21    19    20   ar
    22    20    15   ar
    23    11     2   ar
    24    10     5   ar
    25     8    12    1
    26     8    13    1
@<TRIPOS>MOLECULE
*****
 24 26 0 0 0
SMALL
GASTEIGER

@<TRIPOS>ATOM
      1 S          63.5961   82.1867   12.2587 S.3     1  UNL1       -0.1088
      2 C          63.2632   83.2952   11.3044 C.ar    1  UNL1        0.0261
      3 C          63.8657   83.3085    9.9308 C.ar    1  UNL1        0.0077
      4 C          63.5328   84.4169    8.9766 C.ar    1  UNL1        0.0202
      5 C          62.5974   85.5119    9.3959 C.ar    1  UNL1        0.0893
      6 N          62.0871   86.7260    8.6777 N.ar    1  UNL1       -0.2245
      7 C          61.1692   87.4629    9.6074 C.ar    1  UNL1        0.1567
      8 N          60.4369   88.7351    9.2986 N.pl3   1  UNL1       -0.3375
      9 S          61.1122   86.7043   10.9002 S.2     1  UNL1       -0.0520
     10 C          61.9948   85.4986   10.7695 C.ar    1  UNL1        0.0502
     11 C          62.3277   84.3902   11.7237 C.ar    1  UNL1        0.0142
     12 H          60.5391   89.1602    8.4165 H       1  UNL1        0.1442
     13 H          59.8541   89.1450    9.9780 H       1  UNL1        0.1442
     14 C          64.4060   82.4736   13.4882 C.3     1  UNL1        0.0884
     15 C          63.2067   85.8247   16.2416 C.ar    1  UNL1        0.0756
     16 C          62.3613   84.5889   16.1516 C.ar    1  UNL1        0.0061
     17 C          62.7610   83.4719   15.2339 C.ar    1  UNL1       -0.0032
     18 C          64.0062   83.5906   14.4060 C.ar    1  UNL1       -0.0110
     19 C          64.8516   84.8264   14.4960 C.ar    1  UNL1       -0.0032
     20 C          64.4519   85.9435   15.4138 C.ar    1  UNL1        0.0061
     21 C          62.8069   86.9418   17.1594 C.2     1  UNL1        0.3413
     22 O          62.8304   86.7366   18.6451 O.2     1  UNL1       -0.2449
     23 C          63.2642   89.4671   16.7554 C.3     1  UNL1        0.2560
     24 O          62.3835   88.2640   16.5915 O.3     1  UNL1       -0.4413
@<TRIPOS>BOND
     1    23    24    1
     2    24    21    1
     3    21    22    2
     4    21    15    1
     5    15    16   ar
     6    16    17   ar
     7    17    18   ar
     8    18    14    1
     9    14     1    1
    10     1     2    1
    11     2     3   ar
    12     3     4   ar
    13     4     5   ar
    14     5     6   ar
    15     6     7   ar
    16     7     8    1
    17     7     9   ar
    18     9    10   ar
    19    10    11   ar
    20    18    19   ar
    21    19    20   ar
    22    20    15   ar
    23    11     2   ar
    24    10     5   ar
    25     8    12    1
    26     8    13    1
@<TRIPOS>MOLECULE
*****
 24 26 0 0 0
SMALL
GASTEIGER

@<TRIPOS>ATOM
      1 S          64.6215   82.8209   11.6739 S.3     1  UNL1       -0.1088
      2 C          63.9617   83.2608   12.9472 C.ar    1  UNL1        0.0261
      3 C          62.8562   82.4396   13.5417 C.ar    1  UNL1        0.0077
      4 C          62.1964   82.8795   14.8149 C.ar    1  UNL1        0.0202
      5 C          62.6421   84.1408   15.4936 C.ar    1  UNL1        0.0893
      6 N          62.1829   84.8211   16.7492 N.ar    1  UNL1       -0.2245
      7 C          63.0046   86.0628   16.9306 C.ar    1  UNL1        0.1567
      8 N          62.8810   87.0450   18.0576 N.pl3   1  UNL1       -0.3375
      9 S          63.9717   86.1499   15.7873 S.2     1  UNL1       -0.0520
     10 C          63.7476   84.9620   14.8991 C.ar    1  UNL1        0.0502
     11 C          64.4074   84.5220   13.6259 C.ar    1  UNL1        0.0142
     12 H          62.2121   86.9005   18.7654 H       1  UNL1        0.1442
     13 H          63.4689   87.8341   18.0895 H       1  UNL1        0.1442
     14 C          63.8961   82.9553   10.3680 C.3     1  UNL1        0.0884
     15 C          61.6397   86.7331    9.4260 C.ar    1  UNL1        0.0756
     16 C          62.5621   86.1360    8.4049 C.ar    1  UNL1        0.0061
     17 C          63.3142   84.8768    8.7188 C.ar    1  UNL1       -0.0032
     18 C          63.1439   84.2146   10.0539 C.ar    1  UNL1       -0.0110
     19 C          62.2215   84.8117   11.0750 C.ar    1  UNL1       -0.0032
     20 C          61.4694   86.0709   10.7611 C.ar    1  UNL1        0.0061
     21 C          60.8876   87.9924    9.1120 C.2     1  UNL1        0.3413
     22 O          61.1956   89.2560    9.8592 O.2     1  UNL1       -0.2449
     23 C          59.0303   86.7440    7.7923 C.3     1  UNL1        0.2560
     24 O          59.8275   87.9880    8.0508 O.3     1  UNL1       -0.4413
@<TRIPOS>BOND
     1    23    24    1
     2    24    21    1
     3    21    22    2
     4    21    15    1
     5    15    16   ar
     6    16    17   ar
     7    17    18   ar
     8    18    14    1
     9    14     1    1
    10     1     2    1
    11     2     3   ar
    12     3     4   ar
    13     4     5   ar
    14     5     6   ar
    15     6     7   ar
    16     7     8    1
    17     7     9   ar
    18     9    10   ar
    19    10    11   ar
    20    18    19   ar
    21    19    20   ar
    22    20    15   ar
    23    11     2   ar
    24    10     5   ar
    25     8    12    1
    26     8    13    1
@<TRIPOS>MOLECULE
*****
 24 26 0 0 0
SMALL
GASTEIGER

@<TRIPOS>ATOM
      1 S          62.3007   87.6960   10.9444 S.3     1  UNL1       -0.1088
      2 C          62.7484   86.6130   11.8808 C.ar    1  UNL1        0.0261
      3 C          63.5572   86.9590   13.0957 C.ar    1  UNL1        0.0077
      4 C          64.0048   85.8760   14.0320 C.ar    1  UNL1        0.0202
      5 C          63.6436   84.4470   13.7535 C.ar    1  UNL1        0.0893
      6 N          63.9411   83.1746   14.4902 N.ar    1  UNL1       -0.2245
      7 C          63.3160   82.0423   13.7305 C.ar    1  UNL1        0.1567
      8 N          63.3659   80.5920   14.1103 N.pl3   1  UNL1       -0.3375
      9 S          62.6323   82.6148   12.5244 S.2     1  UNL1       -0.0520
     10 C          62.8348   84.1010   12.5386 C.ar    1  UNL1        0.0502
     11 C          62.3872   85.1840   11.6022 C.ar    1  UNL1        0.0142
     12 H          63.8420   80.3127   14.9255 H       1  UNL1        0.1442
     13 H          62.9225   79.9194   13.5444 H       1  UNL1        0.1442
     14 C          61.9001   89.0365   11.4849 C.3     1  UNL1        0.0884
     15 C          65.0071   92.2316   12.1075 C.ar    1  UNL1        0.0756
     16 C          64.4010   92.0292   10.7505 C.ar    1  UNL1        0.0061
     17 C          63.3653   90.9642   10.5429 C.ar    1  UNL1       -0.0032
     18 C          62.9358   90.1016   11.6924 C.ar    1  UNL1       -0.0110
     19 C          63.5419   90.3040   13.0495 C.ar    1  UNL1       -0.0032
     20 C          64.5776   91.3690   13.2570 C.ar    1  UNL1        0.0061
     21 C          66.0429   93.2967   12.3151 C.2     1  UNL1        0.3413
     22 O          66.1218   94.0207   13.6264 O.2     1  UNL1       -0.2449
     23 C          66.8013   94.8878   10.4065 C.3     1  UNL1        0.2560
     24 O          66.9996   93.6377   11.2113 O.3     1  UNL1       -0.4413
@<TRIPOS>BOND
     1    23    24    1
     2    24    21    1
     3    21    22    2
     4    21    15    1
     5    15    16   ar
     6    16    17   ar
     7    17    18   ar
     8    18    14    1
     9    14     1    1
    10     1     2    1
    11     2     3   ar
    12     3     4   ar
    13     4     5   ar
    14     5     6   ar
    15     6     7   ar
    16     7     8    1
    17     7     9   ar
    18     9    10   ar
    19    10    11   ar
    20    18    19   ar
    21    19    20   ar
    22    20    15   ar
    23    11     2   ar
    24    10     5   ar
    25     8    12    1
    26     8    13    1
@<TRIPOS>MOLECULE
*****
 24 26 0 0 0
SMALL
GASTEIGER

@<TRIPOS>ATOM
      1 S          62.1500   90.1013   11.6548 S.3     1  UNL1       -0.1088
      2 C          63.4078   90.8960   11.8459 C.ar    1  UNL1        0.0261
      3 C          63.9671   91.6997   10.7097 C.ar    1  UNL1        0.0077
      4 C          65.2249   92.4944   10.9009 C.ar    1  UNL1        0.0202
      5 C          65.9234   92.4852   12.2283 C.ar    1  UNL1        0.0893
      6 N          67.1704   93.1649   12.7110 N.ar    1  UNL1       -0.2245
      7 C          67.3818   92.7812   14.1455 C.ar    1  UNL1        0.1567
      8 N          68.5113   93.2347   15.0223 N.pl3   1  UNL1       -0.3375
      9 S          66.2654   91.8644   14.5495 S.2     1  UNL1       -0.0520
     10 C          65.3641   91.6814   13.3645 C.ar    1  UNL1        0.0502
     11 C          64.1063   90.8868   13.1734 C.ar    1  UNL1        0.0142
     12 H          69.1999   93.8404   14.6642 H       1  UNL1        0.1442
     13 H          68.5640   92.9266   15.9559 H       1  UNL1        0.1442
     14 C          62.1028   89.0068   10.6302 C.3     1  UNL1        0.0884
     15 C          62.6167   84.7185   11.8936 C.ar    1  UNL1        0.0756
     16 C          61.8623   85.0455   10.6390 C.ar    1  UNL1        0.0061
     17 C          61.6910   86.4749   10.2179 C.ar    1  UNL1       -0.0032
     18 C          62.2741   87.5773   11.0513 C.ar    1  UNL1       -0.0110
     19 C          63.0284   87.2503   12.3059 C.ar    1  UNL1       -0.0032
     20 C          63.1997   85.8209   12.7270 C.ar    1  UNL1        0.0061
     21 C          62.7880   83.2890   12.3147 C.2     1  UNL1        0.3413
     22 O          62.3535   82.8529   13.6825 O.2     1  UNL1       -0.2449
     23 C          64.4352   82.7372   10.3829 C.3     1  UNL1        0.2560
     24 O          63.3938   82.2957   11.3680 O.3     1  UNL1       -0.4413
@<TRIPOS>BOND
     1    23    24    1
     2    24    21    1
     3    21    22    2
     4    21    15    1
     5    15    16   ar
     6    16    17   ar
     7    17    18   ar
     8    18    14    1
     9    14     1    1
    10     1     2    1
    11     2     3   ar
    12     3     4   ar
    13     4     5   ar
    14     5     6   ar
    15     6     7   ar
    16     7     8    1
    17     7     9   ar
    18     9    10   ar
    19    10    11   ar
    20    18    19   ar
    21    19    20   ar
    22    20    15   ar
    23    11     2   ar
    24    10     5   ar
    25     8    12    1
    26     8    13    1
