@<TRIPOS>MOLECULE
*****
 35 38 0 0 0
SMALL
GASTEIGER

@<TRIPOS>ATOM
      1 C          63.7179   90.3200   12.4625 C.3     1  UNL1        0.1532
      2 N          65.4576   90.8241   14.3251 N.am    1  UNL1       -0.2945
      3 C          64.6425   91.2796   13.1512 C.2     1  UNL1        0.2413
      4 O          64.7520   92.6947   12.6660 O.2     1  UNL1       -0.2733
      5 H          65.3858   89.8953   14.6435 H       1  UNL1        0.1503
      6 C          66.3822   91.7836   15.0137 C.3     1  UNL1        0.1365
      7 C          67.6228   92.5661   15.3280 C.3     1  UNL1        0.0353
      8 C          67.6131   91.6068   14.1748 C.3     1  UNL1        0.0353
      9 N          64.5627   92.8038   17.1698 N.1     1  UNL1       -0.1943
     10 C          65.4725   92.2937   16.0917 C.1     1  UNL1        0.0896
     11 N          63.8987   88.8422   12.6453 N.am    1  UNL1       -0.2932
     12 C          63.6704   88.2194   13.9907 C.2     1  UNL1        0.2673
     13 O          63.2614   89.0745   15.1533 O.2     1  UNL1       -0.2684
     14 H          64.1672   88.2810   11.8823 H       1  UNL1        0.1502
     15 C          63.8512   86.7416   14.1736 C.ar    1  UNL1        0.1767
     16 C          64.5756   86.0754   15.3055 C.ar    1  UNL1        0.1476
     17 N          64.5115   84.5926   15.0881 N.ar    1  UNL1       -0.1446
     18 N          63.7475   84.3424   13.8218 N.ar    1  UNL1       -0.1477
     19 N          63.3394   85.6706   13.2565 N.ar    1  UNL1       -0.1417
     20 C          63.4447   82.9999   13.2253 C.ar    1  UNL1        0.1030
     21 C          63.5666   82.7921   11.7447 C.ar    1  UNL1        0.0232
     22 C          63.2638   81.4496   11.1483 C.ar    1  UNL1        0.0312
     23 C          62.8390   80.3147   12.0324 C.ar    1  UNL1        0.1402
     24 F          62.5362   78.9720   11.4359 F       1  UNL1       -0.2042
     25 C          62.7171   80.5224   13.5129 C.ar    1  UNL1        0.0312
     26 C          63.0199   81.8650   14.1094 C.ar    1  UNL1        0.0232
     27 C          62.6125   90.8382   11.5910 C.3     1  UNL1        0.0553
     28 C          61.8745   89.9026   10.6798 C.ar    1  UNL1       -0.0191
     29 C          60.5379   90.2957   10.1240 C.ar    1  UNL1       -0.0033
     30 C          59.8000   89.3602    9.2129 C.ar    1  UNL1        0.0119
     31 C          60.3986   88.0315    8.8576 C.ar    1  UNL1        0.0682
     32 CL         59.6606   87.0959    7.9464 Cl      1  UNL1       -0.0814
     33 C          61.7352   87.6384    9.4134 C.ar    1  UNL1        0.0679
     34 CL         62.3339   86.3097    9.0581 Cl      1  UNL1       -0.0814
     35 C          62.4732   88.5739   10.3245 C.ar    1  UNL1        0.0080
@<TRIPOS>BOND
     1     9    10    3
     2    10     6    1
     3     6     2    1
     4     2     3   am
     5     3     4    2
     6     3     1    1
     7     1    27    1
     8    27    28    1
     9    28    29   ar
    10    29    30   ar
    11    30    31   ar
    12    31    32    1
    13    31    33   ar
    14    33    34    1
    15    33    35   ar
    16     1    11    1
    17    11    12   am
    18    12    13    2
    19    12    15    1
    20    15    16   ar
    21    16    17   ar
    22    17    18   ar
    23    18    20    1
    24    20    21   ar
    25    21    22   ar
    26    22    23   ar
    27    23    24    1
    28    23    25   ar
    29    25    26   ar
    30    18    19   ar
    31     6     7    1
    32     7     8    1
    33     8     6    1
    34    35    28   ar
    35    19    15   ar
    36    26    20   ar
    37     2     5    1
    38    11    14    1
@<TRIPOS>MOLECULE
*****
 35 38 0 0 0
SMALL
GASTEIGER

@<TRIPOS>ATOM
      1 C          60.7240   88.7828    9.6394 C.3     1  UNL1        0.1532
      2 N          62.8196   89.4070   11.0427 N.am    1  UNL1       -0.2945
      3 C          61.3299   89.2852   10.9164 C.2     1  UNL1        0.2413
      4 O          60.4461   89.6657   12.0671 O.2     1  UNL1       -0.2733
      5 H          63.3997   89.1572   10.2874 H       1  UNL1        0.1503
      6 C          63.4254   89.9093   12.3196 C.3     1  UNL1        0.1365
      7 C          63.9724   90.8619   13.3411 C.3     1  UNL1        0.0353
      8 C          63.4662   91.3801   12.0276 C.3     1  UNL1        0.0353
      9 N          63.7648   87.3168   13.7905 N.1     1  UNL1       -0.1943
     10 C          63.5951   88.6131   13.0550 C.1     1  UNL1        0.0896
     11 N          60.5015   89.7247    8.4934 N.am    1  UNL1       -0.2932
     12 C          59.6851   89.2896    7.3127 C.2     1  UNL1        0.2673
     13 O          59.0911   87.9126    7.2779 O.2     1  UNL1       -0.2684
     14 H          60.8913   90.6284    8.5162 H       1  UNL1        0.1502
     15 C          59.4626   90.2315    6.1667 C.ar    1  UNL1        0.1767
     16 C          58.1420   90.7945    5.7318 C.ar    1  UNL1        0.1476
     17 N          58.3849   91.6867    4.5507 N.ar    1  UNL1       -0.1446
     18 N          59.8555   91.6751    4.2556 N.ar    1  UNL1       -0.1477
     19 N          60.5216   90.7757    5.2543 N.ar    1  UNL1       -0.1417
     20 C          60.5400   92.4303    3.1551 C.ar    1  UNL1        0.1030
     21 C          59.7509   93.3560    2.2772 C.ar    1  UNL1        0.0232
     22 C          60.4353   94.1112    1.1767 C.ar    1  UNL1        0.0312
     23 C          61.9089   93.9407    0.9540 C.ar    1  UNL1        0.1402
     24 F          62.5934   94.6959   -0.1466 F       1  UNL1       -0.2042
     25 C          62.6979   93.0150    1.8318 C.ar    1  UNL1        0.0312
     26 C          62.0135   92.2599    2.9323 C.ar    1  UNL1        0.0232
     27 C          60.3406   87.3385    9.5085 C.3     1  UNL1        0.0553
     28 C          61.3746   86.2681    9.6961 C.ar    1  UNL1       -0.0191
     29 C          62.2104   85.8208    8.5337 C.ar    1  UNL1       -0.0033
     30 C          63.2443   84.7504    8.7213 C.ar    1  UNL1        0.0119
     31 C          63.4424   84.1273   10.0713 C.ar    1  UNL1        0.0682
     32 CL         64.4763   83.0568   10.2589 Cl      1  UNL1       -0.0814
     33 C          62.6065   84.5746   11.2337 C.ar    1  UNL1        0.0679
     34 CL         62.8046   83.9515   12.5837 Cl      1  UNL1       -0.0814
     35 C          61.5726   85.6450   11.0461 C.ar    1  UNL1        0.0080
@<TRIPOS>BOND
     1     9    10    3
     2    10     6    1
     3     6     2    1
     4     2     3   am
     5     3     4    2
     6     3     1    1
     7     1    27    1
     8    27    28    1
     9    28    29   ar
    10    29    30   ar
    11    30    31   ar
    12    31    32    1
    13    31    33   ar
    14    33    34    1
    15    33    35   ar
    16     1    11    1
    17    11    12   am
    18    12    13    2
    19    12    15    1
    20    15    16   ar
    21    16    17   ar
    22    17    18   ar
    23    18    20    1
    24    20    21   ar
    25    21    22   ar
    26    22    23   ar
    27    23    24    1
    28    23    25   ar
    29    25    26   ar
    30    18    19   ar
    31     6     7    1
    32     7     8    1
    33     8     6    1
    34    35    28   ar
    35    19    15   ar
    36    26    20   ar
    37     2     5    1
    38    11    14    1
@<TRIPOS>MOLECULE
*****
 35 38 0 0 0
SMALL
GASTEIGER

@<TRIPOS>ATOM
      1 C          62.7487   87.6337   12.3097 C.3     1  UNL1        0.1532
      2 N          62.4719   85.2147   13.2163 N.am    1  UNL1       -0.2945
      3 C          63.1685   86.5427   13.2497 C.2     1  UNL1        0.2413
      4 O          64.2850   86.7796   14.2229 O.2     1  UNL1       -0.2733
      5 H          61.7391   85.0591   12.5775 H       1  UNL1        0.1503
      6 C          62.8918   84.1237   14.1561 C.3     1  UNL1        0.1365
      7 C          63.4562   82.8217   14.6422 C.3     1  UNL1        0.0353
      8 C          63.4537   83.1372   13.1757 C.3     1  UNL1        0.0353
      9 N          62.0597   85.3388   16.7698 N.1     1  UNL1       -0.1943
     10 C          62.4758   84.7312   15.4629 C.1     1  UNL1        0.0896
     11 N          63.5997   88.8592   12.1553 N.am    1  UNL1       -0.2932
     12 C          63.5391   89.9490   13.1842 C.2     1  UNL1        0.2673
     13 O          62.6274   89.8133   14.3676 O.2     1  UNL1       -0.2684
     14 H          64.1981   88.9483   11.3786 H       1  UNL1        0.1502
     15 C          64.3901   91.1746   13.0298 C.ar    1  UNL1        0.1767
     16 C          65.0377   91.9443   14.1425 C.ar    1  UNL1        0.1476
     17 N          65.7908   93.0910   13.5359 N.ar    1  UNL1       -0.1446
     18 N          65.6086   93.0299   12.0482 N.ar    1  UNL1       -0.1477
     19 N          64.7429   91.8455   11.7354 N.ar    1  UNL1       -0.1417
     20 C          66.1900   93.9855   11.0488 C.ar    1  UNL1        0.1030
     21 C          66.0993   95.4642   11.2841 C.ar    1  UNL1        0.0232
     22 C          66.6807   96.4198   10.2847 C.ar    1  UNL1        0.0312
     23 C          67.3528   95.8967    9.0500 C.ar    1  UNL1        0.1402
     24 F          67.9343   96.8523    8.0505 F       1  UNL1       -0.2042
     25 C          67.4435   94.4180    8.8146 C.ar    1  UNL1        0.0312
     26 C          66.8621   93.4624    9.8141 C.ar    1  UNL1        0.0232
     27 C          61.4778   87.4993   11.5244 C.3     1  UNL1        0.0553
     28 C          61.4892   86.8119   10.1911 C.ar    1  UNL1       -0.0191
     29 C          62.6917   86.0236    9.7640 C.ar    1  UNL1       -0.0033
     30 C          62.7031   85.3363    8.4308 C.ar    1  UNL1        0.0119
     31 C          61.5120   85.4373    7.5247 C.ar    1  UNL1        0.0682
     32 CL         61.5234   84.7500    6.1915 Cl      1  UNL1       -0.0814
     33 C          60.3095   86.2257    7.9518 C.ar    1  UNL1        0.0679
     34 CL         59.1183   86.3268    7.0458 Cl      1  UNL1       -0.0814
     35 C          60.2981   86.9130    9.2850 C.ar    1  UNL1        0.0080
@<TRIPOS>BOND
     1     9    10    3
     2    10     6    1
     3     6     2    1
     4     2     3   am
     5     3     4    2
     6     3     1    1
     7     1    27    1
     8    27    28    1
     9    28    29   ar
    10    29    30   ar
    11    30    31   ar
    12    31    32    1
    13    31    33   ar
    14    33    34    1
    15    33    35   ar
    16     1    11    1
    17    11    12   am
    18    12    13    2
    19    12    15    1
    20    15    16   ar
    21    16    17   ar
    22    17    18   ar
    23    18    20    1
    24    20    21   ar
    25    21    22   ar
    26    22    23   ar
    27    23    24    1
    28    23    25   ar
    29    25    26   ar
    30    18    19   ar
    31     6     7    1
    32     7     8    1
    33     8     6    1
    34    35    28   ar
    35    19    15   ar
    36    26    20   ar
    37     2     5    1
    38    11    14    1
@<TRIPOS>MOLECULE
*****
 35 38 0 0 0
SMALL
GASTEIGER

@<TRIPOS>ATOM
      1 C          64.1699   90.1797   15.0580 C.3     1  UNL1        0.1532
      2 N          66.3833   91.4692   14.6241 N.am    1  UNL1       -0.2945
      3 C          65.0615   91.3563   15.3240 C.2     1  UNL1        0.2413
      4 O          64.6311   92.4201   16.2901 O.2     1  UNL1       -0.2733
      5 H          66.6658   90.7710   13.9900 H       1  UNL1        0.1503
      6 C          67.2748   92.6458   14.8902 C.3     1  UNL1        0.1365
      7 C          68.3113   93.5090   15.5462 C.3     1  UNL1        0.0353
      8 C          68.0022   92.1519   16.1055 C.3     1  UNL1        0.0353
      9 N          66.4391   94.4509   12.6444 N.1     1  UNL1       -0.1943
     10 C          66.8570   93.5483   13.7673 C.1     1  UNL1        0.0896
     11 N          63.8061   89.8180   13.6484 N.am    1  UNL1       -0.2932
     12 C          62.3643   89.6837   13.2569 C.2     1  UNL1        0.2673
     13 O          61.2864   89.9112   14.2748 O.2     1  UNL1       -0.2684
     14 H          64.5136   89.6686   12.9803 H       1  UNL1        0.1502
     15 C          62.0005   89.3220   11.8473 C.ar    1  UNL1        0.1767
     16 C          61.4609   90.2591   10.8078 C.ar    1  UNL1        0.1476
     17 N          61.2394   89.4759    9.5478 N.ar    1  UNL1       -0.1446
     18 N          61.6421   88.0547    9.8086 N.ar    1  UNL1       -0.1477
     19 N          62.1125   87.9595   11.2298 N.ar    1  UNL1       -0.1417
     20 C          61.5845   86.9267    8.8216 C.ar    1  UNL1        0.1030
     21 C          60.3143   86.6487    8.0736 C.ar    1  UNL1        0.0232
     22 C          60.2567   85.5207    7.0866 C.ar    1  UNL1        0.0312
     23 C          61.4693   84.6707    6.8475 C.ar    1  UNL1        0.1402
     24 F          61.4118   83.5426    5.8605 F       1  UNL1       -0.2042
     25 C          62.7394   84.9487    7.5955 C.ar    1  UNL1        0.0312
     26 C          62.7970   86.0767    8.5826 C.ar    1  UNL1        0.0232
     27 C          63.6422   89.3648   16.2014 C.3     1  UNL1        0.0553
     28 C          63.5269   87.8750   16.0704 C.ar    1  UNL1       -0.0191
     29 C          62.6228   87.1090   16.9900 C.ar    1  UNL1       -0.0033
     30 C          62.5076   85.6192   16.8590 C.ar    1  UNL1        0.0119
     31 C          63.2964   84.8954   15.8083 C.ar    1  UNL1        0.0682
     32 CL         63.1811   83.4056   15.6773 Cl      1  UNL1       -0.0814
     33 C          64.2005   85.6615   14.8886 C.ar    1  UNL1        0.0679
     34 CL         64.9893   84.9377   13.8379 Cl      1  UNL1       -0.0814
     35 C          64.3157   87.1512   15.0197 C.ar    1  UNL1        0.0080
@<TRIPOS>BOND
     1     9    10    3
     2    10     6    1
     3     6     2    1
     4     2     3   am
     5     3     4    2
     6     3     1    1
     7     1    27    1
     8    27    28    1
     9    28    29   ar
    10    29    30   ar
    11    30    31   ar
    12    31    32    1
    13    31    33   ar
    14    33    34    1
    15    33    35   ar
    16     1    11    1
    17    11    12   am
    18    12    13    2
    19    12    15    1
    20    15    16   ar
    21    16    17   ar
    22    17    18   ar
    23    18    20    1
    24    20    21   ar
    25    21    22   ar
    26    22    23   ar
    27    23    24    1
    28    23    25   ar
    29    25    26   ar
    30    18    19   ar
    31     6     7    1
    32     7     8    1
    33     8     6    1
    34    35    28   ar
    35    19    15   ar
    36    26    20   ar
    37     2     5    1
    38    11    14    1
@<TRIPOS>MOLECULE
*****
 35 38 0 0 0
SMALL
GASTEIGER

@<TRIPOS>ATOM
      1 C          62.5973   87.4390   12.4555 C.3     1  UNL1        0.1532
      2 N          62.5535   84.8422   12.3852 N.am    1  UNL1       -0.2945
      3 C          63.1475   86.1178   12.9048 C.2     1  UNL1        0.2413
      4 O          64.2916   86.0723   13.8738 O.2     1  UNL1       -0.2733
      5 H          61.8025   84.8721   11.7493 H       1  UNL1        0.1503
      6 C          63.1037   83.5211   12.8346 C.3     1  UNL1        0.1365
      7 C          63.3598   82.3206   13.6966 C.3     1  UNL1        0.0353
      8 C          62.4479   83.4096   14.1790 C.3     1  UNL1        0.0353
      9 N          64.7975   82.8266   10.4579 N.1     1  UNL1       -0.1943
     10 C          63.9506   83.1739   11.6463 C.1     1  UNL1        0.0896
     11 N          63.5082   88.6225   12.3162 N.am    1  UNL1       -0.2932
     12 C          63.4134   89.7605   13.2889 C.2     1  UNL1        0.2673
     13 O          62.4077   89.7149   14.4009 O.2     1  UNL1       -0.2684
     14 H          64.1683   88.6524   11.5864 H       1  UNL1        0.1502
     15 C          64.3244   90.9440   13.1497 C.ar    1  UNL1        0.1767
     16 C          65.0979   91.5964   14.2570 C.ar    1  UNL1        0.1476
     17 N          65.8734   92.7385   13.6703 N.ar    1  UNL1       -0.1446
     18 N          65.5792   92.7920   12.2004 N.ar    1  UNL1       -0.1477
     19 N          64.6219   91.6829   11.8786 N.ar    1  UNL1       -0.1417
     20 C          66.1433   93.7809   11.2238 C.ar    1  UNL1        0.1030
     21 C          66.0326   95.2517   11.4971 C.ar    1  UNL1        0.0232
     22 C          66.5967   96.2406   10.5204 C.ar    1  UNL1        0.0312
     23 C          67.2714   95.7587    9.2704 C.ar    1  UNL1        0.1402
     24 F          67.8355   96.7477    8.2937 F       1  UNL1       -0.2042
     25 C          67.3821   94.2880    8.9971 C.ar    1  UNL1        0.0312
     26 C          66.8180   93.2991    9.9738 C.ar    1  UNL1        0.0232
     27 C          61.1361   87.5766   12.1454 C.3     1  UNL1        0.0553
     28 C          60.6943   87.9314   10.7565 C.ar    1  UNL1       -0.0191
     29 C          60.5310   89.3704   10.3661 C.ar    1  UNL1       -0.0033
     30 C          60.0892   89.7252    8.9773 C.ar    1  UNL1        0.0119
     31 C          59.8107   88.6409    7.9789 C.ar    1  UNL1        0.0682
     32 CL         59.3688   88.9957    6.5900 Cl      1  UNL1       -0.0814
     33 C          59.9740   87.2019    8.3693 C.ar    1  UNL1        0.0679
     34 CL         59.6955   86.1176    7.3709 Cl      1  UNL1       -0.0814
     35 C          60.4158   86.8471    9.7582 C.ar    1  UNL1        0.0080
@<TRIPOS>BOND
     1     9    10    3
     2    10     6    1
     3     6     2    1
     4     2     3   am
     5     3     4    2
     6     3     1    1
     7     1    27    1
     8    27    28    1
     9    28    29   ar
    10    29    30   ar
    11    30    31   ar
    12    31    32    1
    13    31    33   ar
    14    33    34    1
    15    33    35   ar
    16     1    11    1
    17    11    12   am
    18    12    13    2
    19    12    15    1
    20    15    16   ar
    21    16    17   ar
    22    17    18   ar
    23    18    20    1
    24    20    21   ar
    25    21    22   ar
    26    22    23   ar
    27    23    24    1
    28    23    25   ar
    29    25    26   ar
    30    18    19   ar
    31     6     7    1
    32     7     8    1
    33     8     6    1
    34    35    28   ar
    35    19    15   ar
    36    26    20   ar
    37     2     5    1
    38    11    14    1
@<TRIPOS>MOLECULE
*****
 35 38 0 0 0
SMALL
GASTEIGER

@<TRIPOS>ATOM
      1 C          63.0084   87.3112   12.4166 C.3     1  UNL1        0.1532
      2 N          62.2841   87.2089    9.9236 N.am    1  UNL1       -0.2945
      3 C          61.9546   87.0591   11.3793 C.2     1  UNL1        0.2413
      4 O          60.5714   86.6571   11.7976 O.2     1  UNL1       -0.2733
      5 H          63.1920   87.4727    9.6490 H       1  UNL1        0.1503
      6 C          61.2303   86.9568    8.8864 C.3     1  UNL1        0.1365
      7 C          60.4207   86.2445    7.8437 C.3     1  UNL1        0.0353
      8 C          61.5674   85.5442    8.5107 C.3     1  UNL1        0.0353
      9 N          59.8243   89.6068    8.9172 N.1     1  UNL1       -0.1943
     10 C          60.5274   88.2817    8.9018 C.1     1  UNL1        0.0896
     11 N          63.8688   88.5368   12.3292 N.am    1  UNL1       -0.2932
     12 C          63.5229   89.7549   13.1334 C.2     1  UNL1        0.2673
     13 O          62.3166   89.7474   14.0248 O.2     1  UNL1       -0.2684
     14 H          64.6606   88.5417   11.7441 H       1  UNL1        0.1502
     15 C          64.3833   90.9805   13.0460 C.ar    1  UNL1        0.1767
     16 C          65.0207   91.6945   14.2009 C.ar    1  UNL1        0.1476
     17 N          65.7887   92.8626   13.6570 N.ar    1  UNL1       -0.1446
     18 N          65.6259   92.8705   12.1659 N.ar    1  UNL1       -0.1477
     19 N          64.7573   91.7073   11.7882 N.ar    1  UNL1       -0.1417
     20 C          66.2263   93.8667   11.2187 C.ar    1  UNL1        0.1030
     21 C          67.0713   93.3964   10.0720 C.ar    1  UNL1        0.0232
     22 C          67.6717   94.3926    9.1248 C.ar    1  UNL1        0.0312
     23 C          67.4271   95.8590    9.3244 C.ar    1  UNL1        0.1402
     24 F          68.0275   96.8552    8.3772 F       1  UNL1       -0.2042
     25 C          66.5821   96.3292   10.4711 C.ar    1  UNL1        0.0312
     26 C          65.9817   95.3330   11.4183 C.ar    1  UNL1        0.0232
     27 C          63.2018   86.3377   13.5413 C.3     1  UNL1        0.0553
     28 C          63.0943   84.8638   13.2843 C.ar    1  UNL1       -0.0191
     29 C          62.4896   83.9639   14.3209 C.ar    1  UNL1       -0.0033
     30 C          62.3821   82.4900   14.0639 C.ar    1  UNL1        0.0119
     31 C          62.8792   81.9160   12.7703 C.ar    1  UNL1        0.0682
     32 CL         62.7717   80.4421   12.5133 Cl      1  UNL1       -0.0814
     33 C          63.4839   82.8159   11.7337 C.ar    1  UNL1        0.0679
     34 CL         63.9810   82.2419   10.4401 Cl      1  UNL1       -0.0814
     35 C          63.5914   84.2898   11.9907 C.ar    1  UNL1        0.0080
@<TRIPOS>BOND
     1     9    10    3
     2    10     6    1
     3     6     2    1
     4     2     3   am
     5     3     4    2
     6     3     1    1
     7     1    27    1
     8    27    28    1
     9    28    29   ar
    10    29    30   ar
    11    30    31   ar
    12    31    32    1
    13    31    33   ar
    14    33    34    1
    15    33    35   ar
    16     1    11    1
    17    11    12   am
    18    12    13    2
    19    12    15    1
    20    15    16   ar
    21    16    17   ar
    22    17    18   ar
    23    18    20    1
    24    20    21   ar
    25    21    22   ar
    26    22    23   ar
    27    23    24    1
    28    23    25   ar
    29    25    26   ar
    30    18    19   ar
    31     6     7    1
    32     7     8    1
    33     8     6    1
    34    35    28   ar
    35    19    15   ar
    36    26    20   ar
    37     2     5    1
    38    11    14    1
@<TRIPOS>MOLECULE
*****
 35 38 0 0 0
SMALL
GASTEIGER

@<TRIPOS>ATOM
      1 C          59.7481   93.2570    0.7814 C.3     1  UNL1        0.1532
      2 N          62.1336   94.0315    1.4594 N.am    1  UNL1       -0.2945
      3 C          61.2102   93.3834    0.4708 C.2     1  UNL1        0.2413
      4 O          61.7488   92.8619   -0.8284 O.2     1  UNL1       -0.2733
      5 H          61.7801   94.3738    2.3121 H       1  UNL1        0.1503
      6 C          63.5956   94.1579    1.1488 C.3     1  UNL1        0.1365
      7 C          65.0538   93.8159    1.0659 C.3     1  UNL1        0.0353
      8 C          64.0921   92.8528    1.6967 C.3     1  UNL1        0.0353
      9 N          63.6182   96.8560   -0.1627 N.1     1  UNL1       -0.1943
     10 C          63.6069   95.5069    0.4931 C.1     1  UNL1        0.0896
     11 N          59.2886   92.3197    1.8585 N.am    1  UNL1       -0.2932
     12 C          59.3869   92.7267    3.2990 C.2     1  UNL1        0.2673
     13 O          59.9447   94.0709    3.6622 O.2     1  UNL1       -0.2684
     14 H          58.9225   91.4374    1.6202 H       1  UNL1        0.1502
     15 C          58.9273   91.7894    4.3762 C.ar    1  UNL1        0.1767
     16 C          57.5080   91.5740    4.8111 C.ar    1  UNL1        0.1476
     17 N          57.5098   90.5545    5.9113 N.ar    1  UNL1       -0.1446
     18 N          58.9303   90.1396    6.1564 N.ar    1  UNL1       -0.1477
     19 N          59.8065   90.9028    5.2076 N.ar    1  UNL1       -0.1417
     20 C          59.3935   89.1375    7.1719 C.ar    1  UNL1        0.1030
     21 C          59.0563   87.6859    7.0011 C.ar    1  UNL1        0.0232
     22 C          59.5195   86.6838    8.0166 C.ar    1  UNL1        0.0312
     23 C          60.3199   87.1334    9.2029 C.ar    1  UNL1        0.1402
     24 F          60.7832   86.1313   10.2185 F       1  UNL1       -0.2042
     25 C          60.6571   88.5850    9.3736 C.ar    1  UNL1        0.0312
     26 C          60.1939   89.5871    8.3581 C.ar    1  UNL1        0.0232
     27 C          58.7457   94.0677    0.0148 C.3     1  UNL1        0.0553
     28 C          58.2210   93.5656   -1.2977 C.ar    1  UNL1       -0.0191
     29 C          58.7404   94.1399   -2.5823 C.ar    1  UNL1       -0.0033
     30 C          58.2157   93.6378   -3.8947 C.ar    1  UNL1        0.0119
     31 C          57.1715   92.5612   -3.9225 C.ar    1  UNL1        0.0682
     32 CL         56.6467   92.0591   -5.2350 Cl      1  UNL1       -0.0814
     33 C          56.6520   91.9869   -2.6379 C.ar    1  UNL1        0.0679
     34 CL         55.6078   90.9104   -2.6657 Cl      1  UNL1       -0.0814
     35 C          57.1768   92.4891   -1.3255 C.ar    1  UNL1        0.0080
@<TRIPOS>BOND
     1     9    10    3
     2    10     6    1
     3     6     2    1
     4     2     3   am
     5     3     4    2
     6     3     1    1
     7     1    27    1
     8    27    28    1
     9    28    29   ar
    10    29    30   ar
    11    30    31   ar
    12    31    32    1
    13    31    33   ar
    14    33    34    1
    15    33    35   ar
    16     1    11    1
    17    11    12   am
    18    12    13    2
    19    12    15    1
    20    15    16   ar
    21    16    17   ar
    22    17    18   ar
    23    18    20    1
    24    20    21   ar
    25    21    22   ar
    26    22    23   ar
    27    23    24    1
    28    23    25   ar
    29    25    26   ar
    30    18    19   ar
    31     6     7    1
    32     7     8    1
    33     8     6    1
    34    35    28   ar
    35    19    15   ar
    36    26    20   ar
    37     2     5    1
    38    11    14    1
@<TRIPOS>MOLECULE
*****
 35 38 0 0 0
SMALL
GASTEIGER

@<TRIPOS>ATOM
      1 C          60.5958   89.2613    9.5974 C.3     1  UNL1        0.1532
      2 N          62.8158   89.7931   10.8379 N.am    1  UNL1       -0.2945
      3 C          61.3167   89.8138   10.7911 C.2     1  UNL1        0.2413
      4 O          60.5384   90.3872   11.9381 O.2     1  UNL1       -0.2733
      5 H          63.3266   89.4168   10.0851 H       1  UNL1        0.1503
      6 C          63.5366   90.3456   12.0316 C.3     1  UNL1        0.1365
      7 C          64.0414   90.4746   13.4382 C.3     1  UNL1        0.0353
      8 C          63.1648   89.3179   13.0591 C.3     1  UNL1        0.0353
      9 N          64.7809   92.7847   10.8059 N.1     1  UNL1       -0.1943
     10 C          64.1587   91.5652   11.4188 C.1     1  UNL1        0.0896
     11 N          60.3783   90.1217    8.3881 N.am    1  UNL1       -0.2932
     12 C          59.5700   89.6044    7.2351 C.2     1  UNL1        0.2673
     13 O          58.9793   88.2268    7.2915 O.2     1  UNL1       -0.2684
     14 H          60.7660   91.0259    8.3511 H       1  UNL1        0.1502
     15 C          59.3525   90.4648    6.0258 C.ar    1  UNL1        0.1767
     16 C          58.0302   90.9693    5.5289 C.ar    1  UNL1        0.1476
     17 N          58.2796   91.7881    4.2971 N.ar    1  UNL1       -0.1446
     18 N          59.7561   91.7897    4.0326 N.ar    1  UNL1       -0.1477
     19 N          60.4193   90.9718    5.1010 N.ar    1  UNL1       -0.1417
     20 C          60.4480   92.4866    2.8989 C.ar    1  UNL1        0.1030
     21 C          61.9368   92.3800    2.7496 C.ar    1  UNL1        0.0232
     22 C          62.6287   93.0769    1.6158 C.ar    1  UNL1        0.0312
     23 C          61.8319   93.8806    0.6314 C.ar    1  UNL1        0.1402
     24 F          62.5238   94.5776   -0.5025 F       1  UNL1       -0.2042
     25 C          60.3432   93.9873    0.7807 C.ar    1  UNL1        0.0312
     26 C          59.6512   93.2903    1.9144 C.ar    1  UNL1        0.0232
     27 C          60.0924   87.8484    9.6129 C.3     1  UNL1        0.0553
     28 C          61.0641   86.7064    9.6572 C.ar    1  UNL1       -0.0191
     29 C          61.4485   86.0993   10.9738 C.ar    1  UNL1       -0.0033
     30 C          62.4201   84.9575   11.0180 C.ar    1  UNL1        0.0119
     31 C          63.0073   84.4227    9.7456 C.ar    1  UNL1        0.0682
     32 CL         63.9790   83.2807    9.7899 Cl      1  UNL1       -0.0814
     33 C          62.6229   85.0298    8.4289 C.ar    1  UNL1        0.0679
     34 CL         63.2102   84.4950    7.1565 Cl      1  UNL1       -0.0814
     35 C          61.6513   86.1716    8.3847 C.ar    1  UNL1        0.0080
@<TRIPOS>BOND
     1     9    10    3
     2    10     6    1
     3     6     2    1
     4     2     3   am
     5     3     4    2
     6     3     1    1
     7     1    27    1
     8    27    28    1
     9    28    29   ar
    10    29    30   ar
    11    30    31   ar
    12    31    32    1
    13    31    33   ar
    14    33    34    1
    15    33    35   ar
    16     1    11    1
    17    11    12   am
    18    12    13    2
    19    12    15    1
    20    15    16   ar
    21    16    17   ar
    22    17    18   ar
    23    18    20    1
    24    20    21   ar
    25    21    22   ar
    26    22    23   ar
    27    23    24    1
    28    23    25   ar
    29    25    26   ar
    30    18    19   ar
    31     6     7    1
    32     7     8    1
    33     8     6    1
    34    35    28   ar
    35    19    15   ar
    36    26    20   ar
    37     2     5    1
    38    11    14    1
@<TRIPOS>MOLECULE
*****
 35 38 0 0 0
SMALL
GASTEIGER

@<TRIPOS>ATOM
      1 C          62.7234   86.0453   12.4437 C.3     1  UNL1        0.1532
      2 N          62.7776   83.4491   12.5266 N.am    1  UNL1       -0.2945
      3 C          63.1773   84.7757   13.1012 C.2     1  UNL1        0.2413
      4 O          64.0310   84.8329   14.3333 O.2     1  UNL1       -0.2733
      5 H          62.2174   83.4116   11.7179 H       1  UNL1        0.1503
      6 C          63.2315   82.1796   13.1841 C.3     1  UNL1        0.1365
      7 C          64.1380   81.0768   13.6446 C.3     1  UNL1        0.0353
      8 C          64.6923   82.2187   12.8453 C.3     1  UNL1        0.0353
      9 N          60.6254   81.2196   14.3184 N.1     1  UNL1       -0.1943
     10 C          61.9285   81.6997   13.7512 C.1     1  UNL1        0.0896
     11 N          63.4984   87.3135   12.6463 N.am    1  UNL1       -0.2932
     12 C          62.8436   88.6403   12.3994 C.2     1  UNL1        0.2673
     13 O          61.4138   88.6988   11.9498 O.2     1  UNL1       -0.2684
     14 H          64.4369   87.2751   12.9414 H       1  UNL1        0.1502
     15 C          63.6186   89.9084   12.6020 C.ar    1  UNL1        0.1767
     16 C          63.4098   91.1970   11.8631 C.ar    1  UNL1        0.1476
     17 N          64.4007   92.1957   12.3836 N.ar    1  UNL1       -0.1446
     18 N          65.2219   91.5243   13.4441 N.ar    1  UNL1       -0.1477
     19 N          64.7386   90.1107   13.5792 N.ar    1  UNL1       -0.1417
     20 C          66.3317   92.1556   14.2315 C.ar    1  UNL1        0.1030
     21 C          66.5479   93.6386   14.1666 C.ar    1  UNL1        0.0232
     22 C          67.6576   94.2699   14.9539 C.ar    1  UNL1        0.0312
     23 C          68.5511   93.4183   15.8062 C.ar    1  UNL1        0.1402
     24 F          69.6609   94.0496   16.5936 F       1  UNL1       -0.2042
     25 C          68.3349   91.9353   15.8711 C.ar    1  UNL1        0.0312
     26 C          67.2252   91.3040   15.0837 C.ar    1  UNL1        0.0232
     27 C          61.4945   86.0467   11.5836 C.3     1  UNL1        0.0553
     28 C          61.6055   85.7539   10.1166 C.ar    1  UNL1       -0.0191
     29 C          62.8059   85.0282    9.5853 C.ar    1  UNL1       -0.0033
     30 C          62.9167   84.7355    8.1184 C.ar    1  UNL1        0.0119
     31 C          61.8272   85.1685    7.1827 C.ar    1  UNL1        0.0682
     32 CL         61.9381   84.8757    5.7157 Cl      1  UNL1       -0.0814
     33 C          60.6268   85.8942    7.7140 C.ar    1  UNL1        0.0679
     34 CL         59.5373   86.3272    6.7784 Cl      1  UNL1       -0.0814
     35 C          60.5159   86.1869    9.1810 C.ar    1  UNL1        0.0080
@<TRIPOS>BOND
     1     9    10    3
     2    10     6    1
     3     6     2    1
     4     2     3   am
     5     3     4    2
     6     3     1    1
     7     1    27    1
     8    27    28    1
     9    28    29   ar
    10    29    30   ar
    11    30    31   ar
    12    31    32    1
    13    31    33   ar
    14    33    34    1
    15    33    35   ar
    16     1    11    1
    17    11    12   am
    18    12    13    2
    19    12    15    1
    20    15    16   ar
    21    16    17   ar
    22    17    18   ar
    23    18    20    1
    24    20    21   ar
    25    21    22   ar
    26    22    23   ar
    27    23    24    1
    28    23    25   ar
    29    25    26   ar
    30    18    19   ar
    31     6     7    1
    32     7     8    1
    33     8     6    1
    34    35    28   ar
    35    19    15   ar
    36    26    20   ar
    37     2     5    1
    38    11    14    1
