@<TRIPOS>MOLECULE
*****
 29 32 0 0 0
SMALL
GASTEIGER

@<TRIPOS>ATOM
      1 C          62.5881   90.4171   11.3911 C.3     1  UNL1        0.0844
      2 C          62.9971   91.1257   10.1339 C.3     1  UNL1        0.0243
      3 C          64.1509   92.0839   10.1546 C.3     1  UNL1        0.0450
      4 C          64.8957   92.3336   11.4325 C.ar    1  UNL1        0.0349
      5 C          64.4867   91.6250   12.6897 C.ar    1  UNL1       -0.0062
      6 C          65.4029   92.0693   13.7912 C.ar    1  UNL1        0.0314
      7 C          65.4750   91.7056   15.2446 C.ar    1  UNL1        0.0043
      8 C          66.5224   92.3251   16.1216 C.ar    1  UNL1        0.0208
      9 C          67.4976   93.3083   15.5452 C.ar    1  UNL1        0.1005
     10 N          67.4255   93.6720   14.0918 N.ar    1  UNL1       -0.2268
     11 C          66.3781   93.0525   13.2148 C.ar    1  UNL1        0.1435
     12 N          66.0647   93.2158   11.7570 N.ar    1  UNL1       -0.3113
     13 C          63.3329   90.6668   12.6690 C.3     1  UNL1        0.0453
     14 C          60.3406   89.5798   12.3900 C.3     1  UNL1        0.1149
     15 N          61.4343   89.4588   11.3705 N.3     1  UNL1       -0.1551
     16 S          61.3741   88.3796   10.3305 S.O2    1  UNL1        0.0633
     17 O          60.3065   89.1410    9.6021 O.2     1  UNL1       -0.1528
     18 O          62.4418   87.6182   11.0589 O.2     1  UNL1       -0.1528
     19 C          61.3140   87.3004    9.2905 C.ar    1  UNL1        0.1223
     20 C          62.5191   86.4480    9.0237 C.ar    1  UNL1        0.0222
     21 C          62.4589   85.3688    7.9837 C.ar    1  UNL1        0.0310
     22 C          61.1938   85.1419    7.2104 C.ar    1  UNL1        0.1402
     23 F          61.1336   84.0627    6.1704 F       1  UNL1       -0.2042
     24 C          59.9887   85.9943    7.4773 C.ar    1  UNL1        0.0310
     25 C          60.0488   87.0736    8.5173 C.ar    1  UNL1        0.0222
     26 C          66.7924   94.1053   10.7930 C.3     1  UNL1        0.1488
     27 C          67.6997   93.5072    9.7591 C.2     1  UNL1        0.0732
     28 O          67.6293   93.9783    8.3367 O.co2   1  UNL1       -0.5472
     29 O          68.6776   92.4381   10.1475 O.co2   1  UNL1       -0.5472
@<TRIPOS>UNITY_ATOM_ATTR
28 1
charge -1
@<TRIPOS>BOND
     1    14    15    1
     2     1    15    1
     3     1     2    1
     4     2     3    1
     5     3     4    1
     6     4     5   ar
     7     5     6   ar
     8     6     7   ar
     9     7     8   ar
    10     8     9   ar
    11     9    10   ar
    12    10    11   ar
    13    11    12   ar
    14    12    26    1
    15    26    27    1
    16    27    28   ar
    17    27    29   ar
    18     5    13    1
    19    15    16    1
    20    16    17    2
    21    16    18    2
    22    16    19    1
    23    19    20   ar
    24    20    21   ar
    25    21    22   ar
    26    22    23    1
    27    22    24   ar
    28    24    25   ar
    29    13     1    1
    30    25    19   ar
    31    12     4   ar
    32    11     6   ar
@<TRIPOS>MOLECULE
*****
 29 32 0 0 0
SMALL
GASTEIGER

@<TRIPOS>ATOM
      1 C          62.4587   89.6094   11.3308 C.3     1  UNL1        0.0844
      2 C          62.6022   90.3797   10.0517 C.3     1  UNL1        0.0243
      3 C          63.5560   91.5349    9.9749 C.3     1  UNL1        0.0450
      4 C          64.3661   91.9198   11.1772 C.ar    1  UNL1        0.0349
      5 C          64.2226   91.1495   12.4563 C.ar    1  UNL1       -0.0062
      6 C          65.1468   91.7571   13.4696 C.ar    1  UNL1        0.0314
      7 C          65.4298   91.4150   14.9023 C.ar    1  UNL1        0.0043
      8 C          66.4276   92.2188   15.6822 C.ar    1  UNL1        0.0208
      9 C          67.1424   93.3646   15.0294 C.ar    1  UNL1        0.1005
     10 N          66.8593   93.7067   13.5966 N.ar    1  UNL1       -0.2268
     11 C          65.8615   92.9029   12.8167 C.ar    1  UNL1        0.1435
     12 N          65.3791   93.0035   11.4000 N.ar    1  UNL1       -0.3113
     13 C          63.2689   89.9943   12.5331 C.3     1  UNL1        0.0453
     14 C          60.0564   88.6966   11.7125 C.3     1  UNL1        0.1149
     15 N          61.5049   88.4542   11.4076 N.3     1  UNL1       -0.1551
     16 S          61.9997   87.0566   11.1796 S.O2    1  UNL1        0.0633
     17 O          62.9455   87.2030   12.3346 O.2     1  UNL1       -0.1528
     18 O          61.0539   86.9103   10.0245 O.2     1  UNL1       -0.1528
     19 C          62.4945   85.6591   10.9515 C.ar    1  UNL1        0.1223
     20 C          62.9665   85.2435    9.5897 C.ar    1  UNL1        0.0222
     21 C          63.4613   83.8459    9.3617 C.ar    1  UNL1        0.0310
     22 C          63.4841   82.8639   10.4953 C.ar    1  UNL1        0.1402
     23 F          63.9788   81.4664   10.2673 F       1  UNL1       -0.2042
     24 C          63.0120   83.2796   11.8572 C.ar    1  UNL1        0.0310
     25 C          62.5172   84.6772   12.0852 C.ar    1  UNL1        0.0222
     26 C          65.8303   94.0109   10.3844 C.3     1  UNL1        0.1488
     27 C          67.2512   94.0068    9.9039 C.2     1  UNL1        0.0732
     28 O          68.1311   92.8224   10.1744 O.co2   1  UNL1       -0.5472
     29 O          67.7924   95.1871    9.1529 O.co2   1  UNL1       -0.5472
@<TRIPOS>UNITY_ATOM_ATTR
28 1
charge -1
@<TRIPOS>BOND
     1    14    15    1
     2     1    15    1
     3     1     2    1
     4     2     3    1
     5     3     4    1
     6     4     5   ar
     7     5     6   ar
     8     6     7   ar
     9     7     8   ar
    10     8     9   ar
    11     9    10   ar
    12    10    11   ar
    13    11    12   ar
    14    12    26    1
    15    26    27    1
    16    27    28   ar
    17    27    29   ar
    18     5    13    1
    19    15    16    1
    20    16    17    2
    21    16    18    2
    22    16    19    1
    23    19    20   ar
    24    20    21   ar
    25    21    22   ar
    26    22    23    1
    27    22    24   ar
    28    24    25   ar
    29    13     1    1
    30    25    19   ar
    31    12     4   ar
    32    11     6   ar
@<TRIPOS>MOLECULE
*****
 29 32 0 0 0
SMALL
GASTEIGER

@<TRIPOS>ATOM
      1 C          62.1356   89.7328   12.2649 C.3     1  UNL1        0.0844
      2 C          62.6760   89.3031   13.5966 C.3     1  UNL1        0.0243
      3 C          63.9265   89.9312   14.1365 C.3     1  UNL1        0.0450
      4 C          64.6368   90.9889   13.3448 C.ar    1  UNL1        0.0349
      5 C          64.0964   91.4186   12.0131 C.ar    1  UNL1       -0.0062
      6 C          65.0061   92.4770   11.4633 C.ar    1  UNL1        0.0314
      7 C          64.9729   93.2653   10.1876 C.ar    1  UNL1        0.0043
      8 C          66.0423   94.2781    9.9039 C.ar    1  UNL1        0.0208
      9 C          67.1449   94.5026   10.8958 C.ar    1  UNL1        0.1005
     10 N          67.1781   93.7143   12.1715 N.ar    1  UNL1       -0.2268
     11 C          66.1087   92.7015   12.4552 C.ar    1  UNL1        0.1435
     12 N          65.8804   91.7818   13.6180 N.ar    1  UNL1       -0.3113
     13 C          62.8459   90.7905   11.4731 C.3     1  UNL1        0.0453
     14 C          59.5532   89.4534   12.3205 C.3     1  UNL1        0.1149
     15 N          60.8850   89.1047   11.7248 N.3     1  UNL1       -0.1551
     16 S          60.9662   88.1281   10.5893 S.O2    1  UNL1        0.0633
     17 O          60.5882   89.2151    9.6273 O.2     1  UNL1       -0.1528
     18 O          61.3442   87.0410   11.5513 O.2     1  UNL1       -0.1528
     19 C          61.0475   87.1514    9.4538 C.ar    1  UNL1        0.1223
     20 C          62.3257   86.4121    9.1904 C.ar    1  UNL1        0.0222
     21 C          62.4069   85.4354    8.0549 C.ar    1  UNL1        0.0310
     22 C          61.2099   85.1980    7.1826 C.ar    1  UNL1        0.1402
     23 F          61.2911   84.2213    6.0471 F       1  UNL1       -0.2042
     24 C          59.9316   85.9374    7.4460 C.ar    1  UNL1        0.0310
     25 C          59.8504   86.9140    8.5816 C.ar    1  UNL1        0.0222
     26 C          66.7442   91.6740   14.8396 C.3     1  UNL1        0.1488
     27 C          66.6315   92.6971   15.9306 C.2     1  UNL1        0.0732
     28 O          65.4573   92.6723   16.8638 O.co2   1  UNL1       -0.5472
     29 O          67.6929   93.7453   16.0885 O.co2   1  UNL1       -0.5472
@<TRIPOS>UNITY_ATOM_ATTR
28 1
charge -1
@<TRIPOS>BOND
     1    14    15    1
     2     1    15    1
     3     1     2    1
     4     2     3    1
     5     3     4    1
     6     4     5   ar
     7     5     6   ar
     8     6     7   ar
     9     7     8   ar
    10     8     9   ar
    11     9    10   ar
    12    10    11   ar
    13    11    12   ar
    14    12    26    1
    15    26    27    1
    16    27    28   ar
    17    27    29   ar
    18     5    13    1
    19    15    16    1
    20    16    17    2
    21    16    18    2
    22    16    19    1
    23    19    20   ar
    24    20    21   ar
    25    21    22   ar
    26    22    23    1
    27    22    24   ar
    28    24    25   ar
    29    13     1    1
    30    25    19   ar
    31    12     4   ar
    32    11     6   ar
@<TRIPOS>MOLECULE
*****
 29 32 0 0 0
SMALL
GASTEIGER

@<TRIPOS>ATOM
      1 C          64.4384   89.7225   13.8536 C.3     1  UNL1        0.0844
      2 C          64.7790   88.5673   14.7477 C.3     1  UNL1        0.0243
      3 C          64.3094   87.1858   14.3998 C.3     1  UNL1        0.0450
      4 C          63.4993   86.9595   13.1579 C.ar    1  UNL1        0.0349
      5 C          63.1587   88.1147   12.2637 C.ar    1  UNL1       -0.0062
      6 C          62.3507   87.5889   11.1145 C.ar    1  UNL1        0.0314
      7 C          61.7391   88.2667    9.9244 C.ar    1  UNL1        0.0043
      8 C          60.9687   87.4644    8.9181 C.ar    1  UNL1        0.0208
      9 C          60.8099   85.9842    9.1020 C.ar    1  UNL1        0.1005
     10 N          61.4216   85.3063   10.2921 N.ar    1  UNL1       -0.2268
     11 C          62.1920   86.1087   11.2983 C.ar    1  UNL1        0.1435
     12 N          62.9018   85.7198   12.5612 N.ar    1  UNL1       -0.3113
     13 C          63.6282   89.4962   12.6116 C.3     1  UNL1        0.0453
     14 C          64.7749   91.6095   15.6074 C.3     1  UNL1        0.1149
     15 N          64.9080   91.1040   14.2014 N.3     1  UNL1       -0.1551
     16 S          65.5105   91.9800   13.1432 S.O2    1  UNL1        0.0633
     17 O          66.8832   91.6393   13.6428 O.2     1  UNL1       -0.1528
     18 O          64.1377   92.3207   12.6437 O.2     1  UNL1       -0.1528
     19 C          66.1129   92.8559   12.0851 C.ar    1  UNL1        0.1223
     20 C          66.8478   92.2408   10.9312 C.ar    1  UNL1        0.0222
     21 C          67.4502   93.1169    9.8730 C.ar    1  UNL1        0.0310
     22 C          67.3178   94.6079    9.9688 C.ar    1  UNL1        0.1402
     23 F          67.9202   95.4840    8.9106 F       1  UNL1       -0.2042
     24 C          66.5829   95.2230   11.1228 C.ar    1  UNL1        0.0310
     25 C          65.9805   94.3470   12.1809 C.ar    1  UNL1        0.0222
     26 C          62.9974   84.3342   13.1279 C.3     1  UNL1        0.1488
     27 C          62.6926   84.0938   14.5767 C.2     1  UNL1        0.0732
     28 O          61.6536   84.9226   15.2722 O.co2   1  UNL1       -0.5472
     29 O          63.4268   83.0245   15.3302 O.co2   1  UNL1       -0.5472
@<TRIPOS>UNITY_ATOM_ATTR
28 1
charge -1
@<TRIPOS>BOND
     1    14    15    1
     2     1    15    1
     3     1     2    1
     4     2     3    1
     5     3     4    1
     6     4     5   ar
     7     5     6   ar
     8     6     7   ar
     9     7     8   ar
    10     8     9   ar
    11     9    10   ar
    12    10    11   ar
    13    11    12   ar
    14    12    26    1
    15    26    27    1
    16    27    28   ar
    17    27    29   ar
    18     5    13    1
    19    15    16    1
    20    16    17    2
    21    16    18    2
    22    16    19    1
    23    19    20   ar
    24    20    21   ar
    25    21    22   ar
    26    22    23    1
    27    22    24   ar
    28    24    25   ar
    29    13     1    1
    30    25    19   ar
    31    12     4   ar
    32    11     6   ar
@<TRIPOS>MOLECULE
*****
 29 32 0 0 0
SMALL
GASTEIGER

@<TRIPOS>ATOM
      1 C          64.5022   89.9620   13.7452 C.3     1  UNL1        0.0844
      2 C          64.8024   88.8068   14.6536 C.3     1  UNL1        0.0243
      3 C          64.2695   87.4419   14.3325 C.3     1  UNL1        0.0450
      4 C          63.4363   87.2323   13.1029 C.ar    1  UNL1        0.0349
      5 C          63.1360   88.3876   12.1945 C.ar    1  UNL1       -0.0062
      6 C          62.2930   87.8801   11.0622 C.ar    1  UNL1        0.0314
      7 C          61.6979   88.5657    9.8682 C.ar    1  UNL1        0.0043
      8 C          60.8821   87.7825    8.8829 C.ar    1  UNL1        0.0208
      9 C          60.6614   86.3135    9.0916 C.ar    1  UNL1        0.1005
     10 N          61.2565   85.6279   10.2856 N.ar    1  UNL1       -0.2268
     11 C          62.0723   86.4111   11.2709 C.ar    1  UNL1        0.1435
     12 N          62.7789   86.0108   12.5321 N.ar    1  UNL1       -0.3113
     13 C          63.6689   89.7524   12.5156 C.3     1  UNL1        0.0453
     14 C          64.9788   91.8418   15.4740 C.3     1  UNL1        0.1149
     15 N          65.0351   91.3269   14.0663 N.3     1  UNL1       -0.1551
     16 S          65.6243   92.1768   12.9797 S.O2    1  UNL1        0.0633
     17 O          67.0005   91.8959   13.5063 O.2     1  UNL1       -0.1528
     18 O          64.2481   92.4576   12.4532 O.2     1  UNL1       -0.1528
     19 C          66.2134   93.0266   11.8932 C.ar    1  UNL1        0.1223
     20 C          66.9312   92.3833   10.7439 C.ar    1  UNL1        0.0222
     21 C          67.5203   93.2333    9.6573 C.ar    1  UNL1        0.0310
     22 C          67.3916   94.7264    9.7200 C.ar    1  UNL1        0.1402
     23 F          67.9807   95.5763    8.6334 F       1  UNL1       -0.2042
     24 C          66.6737   95.3697   10.8694 C.ar    1  UNL1        0.0310
     25 C          66.0847   94.5197   11.9559 C.ar    1  UNL1        0.0222
     26 C          62.8207   84.6312   13.1194 C.3     1  UNL1        0.1488
     27 C          64.1077   83.8610   13.1340 C.2     1  UNL1        0.0732
     28 O          65.0914   84.0652   14.2479 O.co2   1  UNL1       -0.5472
     29 O          64.4111   82.8864   12.0348 O.co2   1  UNL1       -0.5472
@<TRIPOS>UNITY_ATOM_ATTR
28 1
charge -1
@<TRIPOS>BOND
     1    14    15    1
     2     1    15    1
     3     1     2    1
     4     2     3    1
     5     3     4    1
     6     4     5   ar
     7     5     6   ar
     8     6     7   ar
     9     7     8   ar
    10     8     9   ar
    11     9    10   ar
    12    10    11   ar
    13    11    12   ar
    14    12    26    1
    15    26    27    1
    16    27    28   ar
    17    27    29   ar
    18     5    13    1
    19    15    16    1
    20    16    17    2
    21    16    18    2
    22    16    19    1
    23    19    20   ar
    24    20    21   ar
    25    21    22   ar
    26    22    23    1
    27    22    24   ar
    28    24    25   ar
    29    13     1    1
    30    25    19   ar
    31    12     4   ar
    32    11     6   ar
@<TRIPOS>MOLECULE
*****
 29 32 0 0 0
SMALL
GASTEIGER

@<TRIPOS>ATOM
      1 C          63.4130   85.8180   12.9724 C.3     1  UNL1        0.0844
      2 C          63.8815   87.1363   13.5133 C.3     1  UNL1        0.0243
      3 C          63.4482   88.4132   12.8563 C.3     1  UNL1        0.0450
      4 C          62.5465   88.3718   11.6583 C.ar    1  UNL1        0.0349
      5 C          62.0780   87.0536   11.1173 C.ar    1  UNL1       -0.0062
      6 C          61.2002   87.3246    9.9316 C.ar    1  UNL1        0.0314
      7 C          60.4587   86.4104    9.0019 C.ar    1  UNL1        0.0043
      8 C          59.6432   86.9821    7.8802 C.ar    1  UNL1        0.0208
      9 C          59.5692   88.4679    7.6883 C.ar    1  UNL1        0.1005
     10 N          60.3107   89.3821    8.6180 N.ar    1  UNL1       -0.2268
     11 C          61.1262   88.8104    9.7397 C.ar    1  UNL1        0.1435
     12 N          61.9582   89.4576   10.8068 N.ar    1  UNL1       -0.3113
     13 C          62.5112   85.7767   11.7744 C.3     1  UNL1        0.0453
     14 C          64.5668   84.5812   14.9444 C.3     1  UNL1        0.1149
     15 N          63.8462   84.5410   13.6295 N.3     1  UNL1       -0.1551
     16 S          63.5588   83.2240   12.9715 S.O2    1  UNL1        0.0633
     17 O          62.4049   83.0092   13.9054 O.2     1  UNL1       -0.1528
     18 O          64.7129   83.4388   12.0376 O.2     1  UNL1       -0.1528
     19 C          63.2716   81.9070   12.3136 C.ar    1  UNL1        0.1223
     20 C          63.4499   81.7540   10.8321 C.ar    1  UNL1        0.0222
     21 C          63.1625   80.4370   10.1742 C.ar    1  UNL1        0.0310
     22 C          62.6969   79.2729   10.9977 C.ar    1  UNL1        0.1402
     23 F          62.4096   77.9559   10.3398 F       1  UNL1       -0.2042
     24 C          62.5186   79.4259   12.4792 C.ar    1  UNL1        0.0310
     25 C          62.8059   80.7430   13.1372 C.ar    1  UNL1        0.0222
     26 C          62.1656   90.9319   10.9903 C.3     1  UNL1        0.1488
     27 C          63.5029   91.4526   11.4265 C.2     1  UNL1        0.0732
     28 O          64.5609   91.7509   10.4059 O.co2   1  UNL1       -0.5472
     29 O          63.7822   91.6752   12.8834 O.co2   1  UNL1       -0.5472
@<TRIPOS>UNITY_ATOM_ATTR
28 1
charge -1
@<TRIPOS>BOND
     1    14    15    1
     2     1    15    1
     3     1     2    1
     4     2     3    1
     5     3     4    1
     6     4     5   ar
     7     5     6   ar
     8     6     7   ar
     9     7     8   ar
    10     8     9   ar
    11     9    10   ar
    12    10    11   ar
    13    11    12   ar
    14    12    26    1
    15    26    27    1
    16    27    28   ar
    17    27    29   ar
    18     5    13    1
    19    15    16    1
    20    16    17    2
    21    16    18    2
    22    16    19    1
    23    19    20   ar
    24    20    21   ar
    25    21    22   ar
    26    22    23    1
    27    22    24   ar
    28    24    25   ar
    29    13     1    1
    30    25    19   ar
    31    12     4   ar
    32    11     6   ar
@<TRIPOS>MOLECULE
*****
 29 32 0 0 0
SMALL
GASTEIGER

@<TRIPOS>ATOM
      1 C          62.8954   89.5350   12.2623 C.3     1  UNL1        0.0844
      2 C          63.3488   89.3799   13.6837 C.3     1  UNL1        0.0243
      3 C          64.3452   90.3404   14.2621 C.3     1  UNL1        0.0450
      4 C          64.8882   91.4561   13.4191 C.ar    1  UNL1        0.0349
      5 C          64.4348   91.6112   11.9978 C.ar    1  UNL1       -0.0062
      6 C          65.1399   92.7991   11.4133 C.ar    1  UNL1        0.0314
      7 C          65.0871   93.4283   10.0527 C.ar    1  UNL1        0.0043
      8 C          65.9236   94.6366    9.7522 C.ar    1  UNL1        0.0208
      9 C          66.8128   95.2157   10.8124 C.ar    1  UNL1        0.1005
     10 N          66.8655   94.5865   12.1730 N.ar    1  UNL1       -0.2268
     11 C          66.0291   93.3782   12.4734 C.ar    1  UNL1        0.1435
     12 N          65.8735   92.5481   13.7131 N.ar    1  UNL1       -0.3113
     13 C          63.4384   90.6506   11.4193 C.3     1  UNL1        0.0453
     14 C          60.4931   89.0233   11.4157 C.3     1  UNL1        0.1149
     15 N          61.8990   88.5744   11.6838 N.3     1  UNL1       -0.1551
     16 S          62.3086   87.1652   11.3735 S.O2    1  UNL1        0.0633
     17 O          61.5243   87.2186   10.0960 O.2     1  UNL1       -0.1528
     18 O          63.0929   87.1119   12.6510 O.2     1  UNL1       -0.1528
     19 C          62.7182   85.7560   11.0632 C.ar    1  UNL1        0.1223
     20 C          62.8981   84.7652   12.1750 C.ar    1  UNL1        0.0222
     21 C          63.3077   83.3560   11.8646 C.ar    1  UNL1        0.0310
     22 C          63.5375   82.9375   10.4426 C.ar    1  UNL1        0.1402
     23 F          63.9471   81.5283   10.1323 F       1  UNL1       -0.2042
     24 C          63.3576   83.9284    9.3309 C.ar    1  UNL1        0.0310
     25 C          62.9480   85.3376    9.6412 C.ar    1  UNL1        0.0222
     26 C          66.5794   92.7711   15.0177 C.3     1  UNL1        0.1488
     27 C          68.0702   92.9337   15.0457 C.2     1  UNL1        0.0732
     28 O          68.9055   92.3865   13.9263 O.co2   1  UNL1       -0.5472
     29 O          68.7259   93.6435   16.1929 O.co2   1  UNL1       -0.5472
@<TRIPOS>UNITY_ATOM_ATTR
28 1
charge -1
@<TRIPOS>BOND
     1    14    15    1
     2     1    15    1
     3     1     2    1
     4     2     3    1
     5     3     4    1
     6     4     5   ar
     7     5     6   ar
     8     6     7   ar
     9     7     8   ar
    10     8     9   ar
    11     9    10   ar
    12    10    11   ar
    13    11    12   ar
    14    12    26    1
    15    26    27    1
    16    27    28   ar
    17    27    29   ar
    18     5    13    1
    19    15    16    1
    20    16    17    2
    21    16    18    2
    22    16    19    1
    23    19    20   ar
    24    20    21   ar
    25    21    22   ar
    26    22    23    1
    27    22    24   ar
    28    24    25   ar
    29    13     1    1
    30    25    19   ar
    31    12     4   ar
    32    11     6   ar
@<TRIPOS>MOLECULE
*****
 29 32 0 0 0
SMALL
GASTEIGER

@<TRIPOS>ATOM
      1 C          63.3683   85.9756   13.4533 C.3     1  UNL1        0.0844
      2 C          62.5226   86.0755   12.2185 C.3     1  UNL1        0.0243
      3 C          62.3797   87.3908   11.5118 C.3     1  UNL1        0.0450
      4 C          63.0826   88.6062   12.0398 C.ar    1  UNL1        0.0349
      5 C          63.9283   88.5063   13.2746 C.ar    1  UNL1       -0.0062
      6 C          64.4971   89.8650   13.5581 C.ar    1  UNL1        0.0314
      7 C          65.4012   90.3680   14.6442 C.ar    1  UNL1        0.0043
      8 C          65.8111   91.8106   14.6707 C.ar    1  UNL1        0.0208
      9 C          65.3170   92.7503   13.6110 C.ar    1  UNL1        0.1005
     10 N          64.4129   92.2473   12.5250 N.ar    1  UNL1       -0.2268
     11 C          64.0030   90.8047   12.4985 C.ar    1  UNL1        0.1435
     12 N          63.1287   90.0267   11.5602 N.ar    1  UNL1       -0.3113
     13 C          64.0711   87.1910   13.9814 C.3     1  UNL1        0.0453
     14 C          63.8409   84.6270   15.6231 C.3     1  UNL1        0.1149
     15 N          63.5112   84.6602   14.1601 N.3     1  UNL1       -0.1551
     16 S          63.3244   83.3783   13.4040 S.O2    1  UNL1        0.0633
     17 O          64.5821   83.6499   12.6329 O.2     1  UNL1       -0.1528
     18 O          62.0667   83.1068   14.1751 O.2     1  UNL1       -0.1528
     19 C          63.1376   82.0964   12.6479 C.ar    1  UNL1        0.1223
     20 C          63.3733   82.0579   11.1671 C.ar    1  UNL1        0.0222
     21 C          63.1864   80.7759   10.4110 C.ar    1  UNL1        0.0310
     22 C          62.7638   79.5324   11.1357 C.ar    1  UNL1        0.1402
     23 F          62.5769   78.2505   10.3797 F       1  UNL1       -0.2042
     24 C          62.5281   79.5710   12.6167 C.ar    1  UNL1        0.0310
     25 C          62.7149   80.8530   13.3727 C.ar    1  UNL1        0.0222
     26 C          62.4243   90.5733   10.3539 C.3     1  UNL1        0.1488
     27 C          60.9943   90.2058   10.0898 C.2     1  UNL1        0.0732
     28 O          60.6624   89.1988    9.0286 O.co2   1  UNL1       -0.5472
     29 O          59.8960   90.8451   10.8867 O.co2   1  UNL1       -0.5472
@<TRIPOS>UNITY_ATOM_ATTR
28 1
charge -1
@<TRIPOS>BOND
     1    14    15    1
     2     1    15    1
     3     1     2    1
     4     2     3    1
     5     3     4    1
     6     4     5   ar
     7     5     6   ar
     8     6     7   ar
     9     7     8   ar
    10     8     9   ar
    11     9    10   ar
    12    10    11   ar
    13    11    12   ar
    14    12    26    1
    15    26    27    1
    16    27    28   ar
    17    27    29   ar
    18     5    13    1
    19    15    16    1
    20    16    17    2
    21    16    18    2
    22    16    19    1
    23    19    20   ar
    24    20    21   ar
    25    21    22   ar
    26    22    23    1
    27    22    24   ar
    28    24    25   ar
    29    13     1    1
    30    25    19   ar
    31    12     4   ar
    32    11     6   ar
@<TRIPOS>MOLECULE
*****
 29 32 0 0 0
SMALL
GASTEIGER

@<TRIPOS>ATOM
      1 C          63.8780   87.6775   14.4203 C.3     1  UNL1        0.0844
      2 C          63.2901   87.9223   13.0622 C.3     1  UNL1        0.0243
      3 C          63.5621   89.2134   12.3488 C.3     1  UNL1        0.0450
      4 C          64.4220   90.2598   12.9936 C.ar    1  UNL1        0.0349
      5 C          65.0099   90.0150   14.3517 C.ar    1  UNL1       -0.0062
      6 C          65.8130   91.2229   14.7338 C.ar    1  UNL1        0.0314
      7 C          66.6159   91.5481   15.9584 C.ar    1  UNL1        0.0043
      8 C          67.3272   92.8647   16.0609 C.ar    1  UNL1        0.0208
      9 C          67.2357   93.8561   14.9389 C.ar    1  UNL1        0.1005
     10 N          66.4329   93.5308   13.7143 N.ar    1  UNL1       -0.2268
     11 C          65.7216   92.2142   13.6118 C.ar    1  UNL1        0.1435
     12 N          64.8618   91.6190   12.5363 N.ar    1  UNL1       -0.3113
     13 C          64.7379   88.7238   15.0650 C.3     1  UNL1        0.0453
     14 C          63.5036   86.3633   16.6300 C.3     1  UNL1        0.1149
     15 N          63.6060   86.3862   15.1337 N.3     1  UNL1       -0.1551
     16 S          63.4365   85.1181   14.3507 S.O2    1  UNL1        0.0633
     17 O          62.0050   85.0372   14.7917 O.2     1  UNL1       -0.1528
     18 O          64.8680   85.1990   13.9098 O.2     1  UNL1       -0.1528
     19 C          63.2670   83.8500   13.5678 C.ar    1  UNL1        0.1223
     20 C          63.8848   83.7204   12.2071 C.ar    1  UNL1        0.0222
     21 C          63.7153   82.4522   11.4242 C.ar    1  UNL1        0.0310
     22 C          62.9281   81.3135   12.0019 C.ar    1  UNL1        0.1402
     23 F          62.7586   80.0453   11.2190 F       1  UNL1       -0.2042
     24 C          62.3103   81.4432   13.3627 C.ar    1  UNL1        0.0310
     25 C          62.4798   82.7113   14.1456 C.ar    1  UNL1        0.0222
     26 C          64.5047   92.2689   11.2324 C.3     1  UNL1        0.1488
     27 C          65.4945   93.1601   10.5427 C.2     1  UNL1        0.0732
     28 O          66.7466   92.5780    9.9565 O.co2   1  UNL1       -0.5472
     29 O          65.2324   94.6334   10.4389 O.co2   1  UNL1       -0.5472
@<TRIPOS>UNITY_ATOM_ATTR
28 1
charge -1
@<TRIPOS>BOND
     1    14    15    1
     2     1    15    1
     3     1     2    1
     4     2     3    1
     5     3     4    1
     6     4     5   ar
     7     5     6   ar
     8     6     7   ar
     9     7     8   ar
    10     8     9   ar
    11     9    10   ar
    12    10    11   ar
    13    11    12   ar
    14    12    26    1
    15    26    27    1
    16    27    28   ar
    17    27    29   ar
    18     5    13    1
    19    15    16    1
    20    16    17    2
    21    16    18    2
    22    16    19    1
    23    19    20   ar
    24    20    21   ar
    25    21    22   ar
    26    22    23    1
    27    22    24   ar
    28    24    25   ar
    29    13     1    1
    30    25    19   ar
    31    12     4   ar
    32    11     6   ar
