@<TRIPOS>MOLECULE
*****
 40 44 0 0 0
SMALL
GASTEIGER

@<TRIPOS>ATOM
      1 C          60.0894   88.9012    7.6581 C.ar    1  UNL1        0.1318
      2 C          59.7176   87.4512    7.5611 C.ar    1  UNL1        0.0356
      3 C          60.0716   86.5101    8.6741 C.ar    1  UNL1        0.0191
      4 C          60.7974   87.0189    9.8842 C.ar    1  UNL1        0.0701
      5 C          61.1692   88.4688    9.9813 C.ar    1  UNL1        0.1149
      6 N          60.8152   89.4099    8.8682 N.ar    1  UNL1       -0.2279
      7 C          59.0274   91.7247    4.3190 C.3     1  UNL1        0.0472
      8 C          57.9444   91.1168    5.1601 C.3     1  UNL1        0.0252
      9 C          58.2984   90.1756    6.2731 C.3     1  UNL1        0.0923
     10 N          59.7354   89.8424    6.5450 N.pl3   1  UNL1       -0.2932
     11 C          60.8184   90.4503    5.7040 C.3     1  UNL1        0.0923
     12 C          60.4644   91.3915    4.5910 C.3     1  UNL1        0.0252
     13 C          58.6734   92.6659    3.2060 C.3     1  UNL1        0.2054
     14 O          59.6762   93.6744    2.7291 O.3     1  UNL1       -0.4755
     15 C          62.5532   93.5334   -0.0009 C.ar    1  UNL1        0.0170
     16 C          61.7828   93.0679   -1.2008 C.ar    1  UNL1        0.0013
     17 C          60.3102   92.8046   -1.0908 C.ar    1  UNL1        0.0031
     18 C          59.6080   93.0068    0.2191 C.ar    1  UNL1        0.0369
     19 C          60.3784   93.4722    1.4190 C.ar    1  UNL1        0.1386
     20 C          61.8510   93.7355    1.3090 C.ar    1  UNL1        0.0380
     21 O          64.9916   93.0214    0.7353 O.co2   1  UNL1       -0.5446
     22 C          64.0258   93.7967   -0.1109 C.2     1  UNL1        0.0730
     23 O          64.5326   94.8352   -1.0672 O.co2   1  UNL1       -0.5446
     24 N          61.1514   86.0777   10.9973 N.am    1  UNL1       -0.2792
     25 C          62.2729   85.0971   10.8222 C.2     1  UNL1        0.2496
     26 O          63.0405   85.0578    9.5341 O.2     1  UNL1       -0.2698
     27 H          60.6476   86.1035   11.8427 H       1  UNL1        0.1552
     28 C          62.6269   84.1559   11.9353 C.ar    1  UNL1        0.0567
     29 C          62.5149   82.6744   11.7289 C.ar    1  UNL1        0.0047
     30 C          62.8689   81.7333   12.8419 C.ar    1  UNL1        0.0033
     31 C          63.3349   82.2736   14.1614 C.ar    1  UNL1        0.0375
     32 C          63.4469   83.7551   14.3678 C.ar    1  UNL1        0.1454
     33 C          63.0929   84.6962   13.2547 C.ar    1  UNL1        0.0420
     34 O          63.9128   84.2954   15.6872 O.3     1  UNL1       -0.4535
     35 C          63.6934   85.7401   16.0257 C.ar    1  UNL1        0.1453
     36 C          64.2464   86.8119   15.1337 C.ar    1  UNL1        0.0375
     37 C          64.0270   88.2566   15.4722 C.ar    1  UNL1        0.0031
     38 C          63.2545   88.6296   16.7027 C.ar    1  UNL1        0.0002
     39 C          62.7014   87.5580   17.5947 C.ar    1  UNL1        0.0031
     40 C          62.9209   86.1132   17.2562 C.ar    1  UNL1        0.0375
@<TRIPOS>UNITY_ATOM_ATTR
21 1
charge -1
@<TRIPOS>BOND
     1    21    22   ar
     2    22    23   ar
     3    22    15    1
     4    15    16   ar
     5    16    17   ar
     6    17    18   ar
     7    18    19   ar
     8    19    14    1
     9    14    13    1
    10    13     7    1
    11     7     8    1
    12     8     9    1
    13     9    10    1
    14    10     1    1
    15     1     2   ar
    16     2     3   ar
    17     3     4   ar
    18     4    24    1
    19    24    25   am
    20    25    26    2
    21    25    28    1
    22    28    29   ar
    23    29    30   ar
    24    30    31   ar
    25    31    32   ar
    26    32    34    1
    27    34    35    1
    28    35    36   ar
    29    36    37   ar
    30    37    38   ar
    31    38    39   ar
    32    39    40   ar
    33    32    33   ar
    34     4     5   ar
    35     5     6   ar
    36    10    11    1
    37    11    12    1
    38    19    20   ar
    39    20    15   ar
    40    12     7    1
    41     6     1   ar
    42    33    28   ar
    43    40    35   ar
    44    24    27    1
@<TRIPOS>MOLECULE
*****
 40 44 0 0 0
SMALL
GASTEIGER

@<TRIPOS>ATOM
      1 C          60.0708   88.8580    7.6865 C.ar    1  UNL1        0.1318
      2 C          59.7467   87.3976    7.5759 C.ar    1  UNL1        0.0356
      3 C          60.1234   86.4598    8.6843 C.ar    1  UNL1        0.0191
      4 C          60.8242   86.9824    9.9032 C.ar    1  UNL1        0.0701
      5 C          61.1482   88.4427   10.0138 C.ar    1  UNL1        0.1149
      6 N          60.7715   89.3805    8.9054 N.ar    1  UNL1       -0.2279
      7 C          58.9406   91.6715    4.3614 C.3     1  UNL1        0.0472
      8 C          57.8733   91.0450    5.2089 C.3     1  UNL1        0.0252
      9 C          58.2501   90.1072    6.3173 C.3     1  UNL1        0.0923
     10 N          59.6940   89.7959    6.5781 N.pl3   1  UNL1       -0.2932
     11 C          60.7613   90.4224    5.7305 C.3     1  UNL1        0.0923
     12 C          60.3846   91.3602    4.6222 C.3     1  UNL1        0.0252
     13 C          58.5639   92.6094    3.2530 C.3     1  UNL1        0.2054
     14 O          59.6278   93.3775    2.5263 O.3     1  UNL1       -0.4755
     15 C          58.6789   92.8687   -1.2935 C.ar    1  UNL1        0.0170
     16 C          60.0269   92.9934   -1.9395 C.ar    1  UNL1        0.0013
     17 C          61.2419   93.2461   -1.0969 C.ar    1  UNL1        0.0031
     18 C          61.1089   93.3741    0.3917 C.ar    1  UNL1        0.0369
     19 C          59.7609   93.2495    1.0376 C.ar    1  UNL1        0.1386
     20 C          58.5459   92.9968    0.1950 C.ar    1  UNL1        0.0380
     21 O          57.5644   92.6686   -3.6318 O.co2   1  UNL1       -0.5446
     22 C          57.4640   92.6160   -2.1361 C.2     1  UNL1        0.0730
     23 O          56.1486   92.3108   -1.4831 O.co2   1  UNL1       -0.5446
     24 N          61.2009   86.0444   11.0117 N.am    1  UNL1       -0.2792
     25 C          62.3039   85.0484   10.8089 C.2     1  UNL1        0.2496
     26 O          63.0302   84.9901    9.4978 O.2     1  UNL1       -0.2698
     27 H          60.7242   86.0827   11.8722 H       1  UNL1        0.1552
     28 C          62.6806   84.1105   11.9174 C.ar    1  UNL1        0.0567
     29 C          62.6080   82.6278   11.7024 C.ar    1  UNL1        0.0047
     30 C          62.9847   81.6899   12.8108 C.ar    1  UNL1        0.0033
     31 C          63.4340   82.2349   14.1341 C.ar    1  UNL1        0.0375
     32 C          63.5066   83.7176   14.3491 C.ar    1  UNL1        0.1454
     33 C          63.1299   84.6554   13.2407 C.ar    1  UNL1        0.0420
     34 O          63.9560   84.2625   15.6724 O.3     1  UNL1       -0.4535
     35 C          63.7133   85.7033   16.0116 C.ar    1  UNL1        0.1453
     36 C          62.9285   86.0631   17.2384 C.ar    1  UNL1        0.0375
     37 C          62.6859   87.5039   17.5776 C.ar    1  UNL1        0.0031
     38 C          63.2279   88.5849   16.6902 C.ar    1  UNL1        0.0002
     39 C          64.0126   88.2252   15.4635 C.ar    1  UNL1        0.0031
     40 C          64.2553   86.7843   15.1242 C.ar    1  UNL1        0.0375
@<TRIPOS>UNITY_ATOM_ATTR
21 1
charge -1
@<TRIPOS>BOND
     1    21    22   ar
     2    22    23   ar
     3    22    15    1
     4    15    16   ar
     5    16    17   ar
     6    17    18   ar
     7    18    19   ar
     8    19    14    1
     9    14    13    1
    10    13     7    1
    11     7     8    1
    12     8     9    1
    13     9    10    1
    14    10     1    1
    15     1     2   ar
    16     2     3   ar
    17     3     4   ar
    18     4    24    1
    19    24    25   am
    20    25    26    2
    21    25    28    1
    22    28    29   ar
    23    29    30   ar
    24    30    31   ar
    25    31    32   ar
    26    32    34    1
    27    34    35    1
    28    35    36   ar
    29    36    37   ar
    30    37    38   ar
    31    38    39   ar
    32    39    40   ar
    33    32    33   ar
    34     4     5   ar
    35     5     6   ar
    36    10    11    1
    37    11    12    1
    38    19    20   ar
    39    20    15   ar
    40    12     7    1
    41     6     1   ar
    42    33    28   ar
    43    40    35   ar
    44    24    27    1
@<TRIPOS>MOLECULE
*****
 40 44 0 0 0
SMALL
GASTEIGER

@<TRIPOS>ATOM
      1 C          59.6635   90.1895    6.2721 C.ar    1  UNL1        0.1318
      2 C          60.8231   90.6368    5.4324 C.ar    1  UNL1        0.0356
      3 C          60.5945   91.5463    4.2616 C.ar    1  UNL1        0.0191
      4 C          59.2064   92.0084    3.9306 C.ar    1  UNL1        0.0701
      5 C          58.0468   91.5611    4.7704 C.ar    1  UNL1        0.1149
      6 N          58.2753   90.6516    5.9411 N.ar    1  UNL1       -0.2279
      7 C          60.3490   87.4613    9.7845 C.3     1  UNL1        0.0472
      8 C          60.6843   88.9195    9.8908 C.3     1  UNL1        0.0252
      9 C          60.4558   89.8288    8.7200 C.3     1  UNL1        0.0923
     10 N          59.8920   89.2801    7.4429 N.pl3   1  UNL1       -0.2932
     11 C          59.5566   87.8219    7.3366 C.3     1  UNL1        0.0923
     12 C          59.7852   86.9126    8.5074 C.3     1  UNL1        0.0252
     13 C          60.5775   86.5519   10.9553 C.3     1  UNL1        0.2054
     14 O          61.9482   86.4266   11.5514 O.3     1  UNL1       -0.4755
     15 C          63.5158   82.9959   12.7854 C.ar    1  UNL1        0.0170
     16 C          64.0706   82.4589   11.4994 C.ar    1  UNL1        0.0013
     17 C          63.9178   83.2445   10.2307 C.ar    1  UNL1        0.0031
     18 C          63.2104   84.5670   10.2480 C.ar    1  UNL1        0.0369
     19 C          62.6557   85.1040   11.5340 C.ar    1  UNL1        0.1386
     20 C          62.8084   84.3185   12.8027 C.ar    1  UNL1        0.0380
     21 O          63.9315   82.9205   15.3489 O.co2   1  UNL1       -0.5446
     22 C          63.6686   82.2104   14.0541 C.2     1  UNL1        0.0730
     23 O          63.5583   80.7147   14.0280 O.co2   1  UNL1       -0.5446
     24 N          58.9779   92.9178    2.7598 N.am    1  UNL1       -0.2792
     25 C          60.1475   93.5007    2.0234 C.2     1  UNL1        0.2496
     26 O          61.5456   93.1741    2.4577 O.2     1  UNL1       -0.2698
     27 H          58.0603   93.1322    2.4747 H       1  UNL1        0.1552
     28 C          59.9190   94.4101    0.8526 C.ar    1  UNL1        0.0567
     29 C          60.9182   95.4807    0.5283 C.ar    1  UNL1        0.0047
     30 C          60.6897   96.3901   -0.6425 C.ar    1  UNL1        0.0033
     31 C          59.4619   96.2289   -1.4890 C.ar    1  UNL1        0.0375
     32 C          58.4626   95.1583   -1.1646 C.ar    1  UNL1        0.1454
     33 C          58.6911   94.2489    0.0061 C.ar    1  UNL1        0.0420
     34 O          57.2348   94.9971   -2.0111 O.3     1  UNL1       -0.4535
     35 C          56.9341   93.6748   -2.6522 C.ar    1  UNL1        0.1453
     36 C          56.0604   92.6805   -1.9464 C.ar    1  UNL1        0.0375
     37 C          55.7597   91.3582   -2.5875 C.ar    1  UNL1        0.0031
     38 C          56.3327   91.0302   -3.9344 C.ar    1  UNL1        0.0002
     39 C          57.2063   92.0244   -4.6402 C.ar    1  UNL1        0.0031
     40 C          57.5071   93.3468   -3.9991 C.ar    1  UNL1        0.0375
@<TRIPOS>UNITY_ATOM_ATTR
21 1
charge -1
@<TRIPOS>BOND
     1    21    22   ar
     2    22    23   ar
     3    22    15    1
     4    15    16   ar
     5    16    17   ar
     6    17    18   ar
     7    18    19   ar
     8    19    14    1
     9    14    13    1
    10    13     7    1
    11     7     8    1
    12     8     9    1
    13     9    10    1
    14    10     1    1
    15     1     2   ar
    16     2     3   ar
    17     3     4   ar
    18     4    24    1
    19    24    25   am
    20    25    26    2
    21    25    28    1
    22    28    29   ar
    23    29    30   ar
    24    30    31   ar
    25    31    32   ar
    26    32    34    1
    27    34    35    1
    28    35    36   ar
    29    36    37   ar
    30    37    38   ar
    31    38    39   ar
    32    39    40   ar
    33    32    33   ar
    34     4     5   ar
    35     5     6   ar
    36    10    11    1
    37    11    12    1
    38    19    20   ar
    39    20    15   ar
    40    12     7    1
    41     6     1   ar
    42    33    28   ar
    43    40    35   ar
    44    24    27    1
@<TRIPOS>MOLECULE
*****
 40 44 0 0 0
SMALL
GASTEIGER

@<TRIPOS>ATOM
      1 C          59.6231   89.9964    6.4473 C.ar    1  UNL1        0.1318
      2 C          60.7206   90.5121    5.5644 C.ar    1  UNL1        0.0356
      3 C          60.3927   91.4032    4.4032 C.ar    1  UNL1        0.0191
      4 C          58.9674   91.7786    4.1250 C.ar    1  UNL1        0.0701
      5 C          57.8699   91.2630    5.0079 C.ar    1  UNL1        0.1149
      6 N          58.1978   90.3719    6.1691 N.ar    1  UNL1       -0.2279
      7 C          60.6066   87.3231    9.9310 C.3     1  UNL1        0.0472
      8 C          60.8342   88.8022   10.0330 C.3     1  UNL1        0.0252
      9 C          60.5064   89.6932    8.8718 C.3     1  UNL1        0.0923
     10 N          59.9510   89.1052    7.6086 N.pl3   1  UNL1       -0.2932
     11 C          59.7234   87.6262    7.5065 C.3     1  UNL1        0.0923
     12 C          60.0512   86.7351    8.6677 C.3     1  UNL1        0.0252
     13 C          60.9345   86.4319   11.0922 C.3     1  UNL1        0.2054
     14 O          62.3632   86.0908   11.3959 O.3     1  UNL1       -0.4755
     15 C          63.0203   82.2727   12.2564 C.ar    1  UNL1        0.0170
     16 C          63.7847   81.8359   11.0419 C.ar    1  UNL1        0.0013
     17 C          64.0752   82.8173    9.9454 C.ar    1  UNL1        0.0031
     18 C          63.6014   84.2356   10.0634 C.ar    1  UNL1        0.0369
     19 C          62.8371   84.6724   11.2779 C.ar    1  UNL1        0.1386
     20 C          62.5465   83.6909   12.3743 C.ar    1  UNL1        0.0380
     21 O          62.8951   81.6983   14.7870 O.co2   1  UNL1       -0.5446
     22 C          62.7298   81.2912   13.3529 C.2     1  UNL1        0.0730
     23 O          62.2739   79.9026   13.0152 O.co2   1  UNL1       -0.5446
     24 N          58.6395   92.6698    2.9637 N.am    1  UNL1       -0.2792
     25 C          59.7181   93.0806    2.0057 C.2     1  UNL1        0.2496
     26 O          61.1245   92.6003    2.2088 O.2     1  UNL1       -0.2698
     27 H          57.7165   92.9851    2.8304 H       1  UNL1        0.1552
     28 C          59.3903   93.9718    0.8444 C.ar    1  UNL1        0.0567
     29 C          59.9535   95.3606    0.7824 C.ar    1  UNL1        0.0047
     30 C          59.6256   96.2517   -0.3788 C.ar    1  UNL1        0.0033
     31 C          58.7346   95.7539   -1.4780 C.ar    1  UNL1        0.0375
     32 C          58.1713   94.3651   -1.4160 C.ar    1  UNL1        0.1454
     33 C          58.4992   93.4740   -0.2548 C.ar    1  UNL1        0.0420
     34 O          57.2802   93.8674   -2.5152 O.3     1  UNL1       -0.4535
     35 C          56.0017   94.5867   -2.8278 C.ar    1  UNL1        0.1453
     36 C          55.0484   94.9363   -1.7237 C.ar    1  UNL1        0.0375
     37 C          53.7699   95.6556   -2.0363 C.ar    1  UNL1        0.0031
     38 C          53.4444   96.0253   -3.4532 C.ar    1  UNL1        0.0002
     39 C          54.3976   95.6756   -4.5573 C.ar    1  UNL1        0.0031
     40 C          55.6762   94.9563   -4.2447 C.ar    1  UNL1        0.0375
@<TRIPOS>UNITY_ATOM_ATTR
21 1
charge -1
@<TRIPOS>BOND
     1    21    22   ar
     2    22    23   ar
     3    22    15    1
     4    15    16   ar
     5    16    17   ar
     6    17    18   ar
     7    18    19   ar
     8    19    14    1
     9    14    13    1
    10    13     7    1
    11     7     8    1
    12     8     9    1
    13     9    10    1
    14    10     1    1
    15     1     2   ar
    16     2     3   ar
    17     3     4   ar
    18     4    24    1
    19    24    25   am
    20    25    26    2
    21    25    28    1
    22    28    29   ar
    23    29    30   ar
    24    30    31   ar
    25    31    32   ar
    26    32    34    1
    27    34    35    1
    28    35    36   ar
    29    36    37   ar
    30    37    38   ar
    31    38    39   ar
    32    39    40   ar
    33    32    33   ar
    34     4     5   ar
    35     5     6   ar
    36    10    11    1
    37    11    12    1
    38    19    20   ar
    39    20    15   ar
    40    12     7    1
    41     6     1   ar
    42    33    28   ar
    43    40    35   ar
    44    24    27    1
@<TRIPOS>MOLECULE
*****
 40 44 0 0 0
SMALL
GASTEIGER

@<TRIPOS>ATOM
      1 C          60.5152   93.0990    2.0855 C.ar    1  UNL1        0.1318
      2 C          61.7891   92.3544    2.3549 C.ar    1  UNL1        0.0356
      3 C          61.9154   91.5046    3.5845 C.ar    1  UNL1        0.0191
      4 C          60.7677   91.3994    4.5446 C.ar    1  UNL1        0.0701
      5 C          59.4938   92.1440    4.2752 C.ar    1  UNL1        0.1149
      6 N          59.3676   92.9938    3.0456 N.ar    1  UNL1       -0.2279
      7 C          60.1363   95.6484   -1.6032 C.3     1  UNL1        0.0472
      8 C          60.7759   94.2944   -1.6898 C.3     1  UNL1        0.0252
      9 C          60.9022   93.4447   -0.4603 C.3     1  UNL1        0.0923
     10 N          60.3889   93.9489    0.8559 N.pl3   1  UNL1       -0.2932
     11 C          59.7493   95.3029    0.9425 C.3     1  UNL1        0.0923
     12 C          59.6230   96.1526   -0.2871 C.3     1  UNL1        0.0252
     13 C          60.0100   96.4983   -2.8329 C.3     1  UNL1        0.2054
     14 O          58.8054   96.3644   -3.7166 O.3     1  UNL1       -0.4755
     15 C          56.5008   93.1748   -3.2017 C.ar    1  UNL1        0.0170
     16 C          55.3552   93.7727   -2.4402 C.ar    1  UNL1        0.0013
     17 C          55.3597   95.2346   -2.1040 C.ar    1  UNL1        0.0031
     18 C          56.5097   96.0985   -2.5295 C.ar    1  UNL1        0.0369
     19 C          57.6553   95.5005   -3.2911 C.ar    1  UNL1        0.1386
     20 C          57.6508   94.0387   -3.6272 C.ar    1  UNL1        0.0380
     21 O          57.3039   91.2072   -4.6963 O.co2   1  UNL1       -0.5446
     22 C          56.4963   91.7129   -3.5378 C.2     1  UNL1        0.0730
     23 O          55.6843   90.7568   -2.7155 O.co2   1  UNL1       -0.5446
     24 N          60.8941   90.5496    5.7742 N.am    1  UNL1       -0.2792
     25 C          59.6784   89.8978    6.3636 C.2     1  UNL1        0.2496
     26 O          58.3364   90.0959    5.7234 O.2     1  UNL1       -0.2698
     27 H          61.7748   90.4196    6.1944 H       1  UNL1        0.1552
     28 C          59.8047   89.0480    7.5932 C.ar    1  UNL1        0.0567
     29 C          59.5527   87.5715    7.5135 C.ar    1  UNL1        0.0047
     30 C          59.6791   86.7217    8.7431 C.ar    1  UNL1        0.0033
     31 C          60.0574   87.3484   10.0523 C.ar    1  UNL1        0.0375
     32 C          60.3094   88.8249   10.1320 C.ar    1  UNL1        0.1454
     33 C          60.1831   89.6747    8.9024 C.ar    1  UNL1        0.0420
     34 O          60.6877   89.4517   11.4412 O.3     1  UNL1       -0.4535
     35 C          61.9947   90.1752   11.5765 C.ar    1  UNL1        0.1453
     36 C          62.5676   90.9145   10.4037 C.ar    1  UNL1        0.0375
     37 C          63.8745   91.6381   10.5389 C.ar    1  UNL1        0.0031
     38 C          64.6086   91.6225   11.8469 C.ar    1  UNL1        0.0002
     39 C          64.0357   90.8833   13.0197 C.ar    1  UNL1        0.0031
     40 C          62.7287   90.1597   12.8845 C.ar    1  UNL1        0.0375
@<TRIPOS>UNITY_ATOM_ATTR
21 1
charge -1
@<TRIPOS>BOND
     1    21    22   ar
     2    22    23   ar
     3    22    15    1
     4    15    16   ar
     5    16    17   ar
     6    17    18   ar
     7    18    19   ar
     8    19    14    1
     9    14    13    1
    10    13     7    1
    11     7     8    1
    12     8     9    1
    13     9    10    1
    14    10     1    1
    15     1     2   ar
    16     2     3   ar
    17     3     4   ar
    18     4    24    1
    19    24    25   am
    20    25    26    2
    21    25    28    1
    22    28    29   ar
    23    29    30   ar
    24    30    31   ar
    25    31    32   ar
    26    32    34    1
    27    34    35    1
    28    35    36   ar
    29    36    37   ar
    30    37    38   ar
    31    38    39   ar
    32    39    40   ar
    33    32    33   ar
    34     4     5   ar
    35     5     6   ar
    36    10    11    1
    37    11    12    1
    38    19    20   ar
    39    20    15   ar
    40    12     7    1
    41     6     1   ar
    42    33    28   ar
    43    40    35   ar
    44    24    27    1
@<TRIPOS>MOLECULE
*****
 40 44 0 0 0
SMALL
GASTEIGER

@<TRIPOS>ATOM
      1 C          59.6807   90.2335    6.2313 C.ar    1  UNL1        0.1318
      2 C          60.8489   90.6325    5.3793 C.ar    1  UNL1        0.0356
      3 C          60.6383   91.5102    4.1813 C.ar    1  UNL1        0.0191
      4 C          59.2595   91.9889    3.8353 C.ar    1  UNL1        0.0701
      5 C          58.0913   91.5899    4.6874 C.ar    1  UNL1        0.1149
      6 N          58.3019   90.7122    5.8854 N.ar    1  UNL1       -0.2279
      7 C          60.3123   87.6003    9.8254 C.3     1  UNL1        0.0472
      8 C          59.6831   87.0382    8.5852 C.3     1  UNL1        0.0252
      9 C          59.4726   87.9160    7.3872 C.3     1  UNL1        0.0923
     10 N          59.8913   89.3557    7.4294 N.pl3   1  UNL1       -0.2932
     11 C          60.5205   89.9178    8.6696 C.3     1  UNL1        0.0923
     12 C          60.7310   89.0400    9.8676 C.3     1  UNL1        0.0252
     13 C          60.5229   86.7225   11.0234 C.3     1  UNL1        0.2054
     14 O          61.8968   86.5624   11.6037 O.3     1  UNL1       -0.4755
     15 C          63.3433   83.0869   12.8601 C.ar    1  UNL1        0.0170
     16 C          63.8932   82.5296   11.5807 C.ar    1  UNL1        0.0013
     17 C          63.7776   83.3165   10.3089 C.ar    1  UNL1        0.0031
     18 C          63.1121   84.6608   10.3166 C.ar    1  UNL1        0.0369
     19 C          62.5623   85.2181   11.5960 C.ar    1  UNL1        0.1386
     20 C          62.6779   84.4312   12.8678 C.ar    1  UNL1        0.0380
     21 O          62.8399   80.9373   14.2296 O.co2   1  UNL1       -0.5446
     22 C          63.4590   82.3000   14.1319 C.2     1  UNL1        0.0730
     23 O          64.1936   82.8759   15.3060 O.co2   1  UNL1       -0.5446
     24 N          59.0489   92.8666    2.6373 N.am    1  UNL1       -0.2792
     25 C          60.2120   93.2381    1.7660 C.2     1  UNL1        0.2496
     26 O          61.5857   92.7319    2.0927 O.2     1  UNL1       -0.2698
     27 H          58.1473   93.1989    2.4228 H       1  UNL1        0.1552
     28 C          60.0014   94.1159    0.5679 C.ar    1  UNL1        0.0567
     29 C          59.4015   95.4805    0.7341 C.ar    1  UNL1        0.0047
     30 C          59.1910   96.3582   -0.4639 C.ar    1  UNL1        0.0033
     31 C          59.5803   95.8712   -1.8282 C.ar    1  UNL1        0.0375
     32 C          60.1802   94.5065   -1.9944 C.ar    1  UNL1        0.1454
     33 C          60.3908   93.6288   -0.7964 C.ar    1  UNL1        0.0420
     34 O          60.5696   94.0195   -3.3586 O.3     1  UNL1       -0.4535
     35 C          61.9719   94.2162   -3.8533 C.ar    1  UNL1        0.1453
     36 C          62.3681   95.5168   -4.4871 C.ar    1  UNL1        0.0375
     37 C          63.7705   95.7136   -4.9818 C.ar    1  UNL1        0.0031
     38 C          64.7767   94.6098   -4.8426 C.ar    1  UNL1        0.0002
     39 C          64.3805   93.3094   -4.2087 C.ar    1  UNL1        0.0031
     40 C          62.9781   93.1125   -3.7141 C.ar    1  UNL1        0.0375
@<TRIPOS>UNITY_ATOM_ATTR
21 1
charge -1
@<TRIPOS>BOND
     1    21    22   ar
     2    22    23   ar
     3    22    15    1
     4    15    16   ar
     5    16    17   ar
     6    17    18   ar
     7    18    19   ar
     8    19    14    1
     9    14    13    1
    10    13     7    1
    11     7     8    1
    12     8     9    1
    13     9    10    1
    14    10     1    1
    15     1     2   ar
    16     2     3   ar
    17     3     4   ar
    18     4    24    1
    19    24    25   am
    20    25    26    2
    21    25    28    1
    22    28    29   ar
    23    29    30   ar
    24    30    31   ar
    25    31    32   ar
    26    32    34    1
    27    34    35    1
    28    35    36   ar
    29    36    37   ar
    30    37    38   ar
    31    38    39   ar
    32    39    40   ar
    33    32    33   ar
    34     4     5   ar
    35     5     6   ar
    36    10    11    1
    37    11    12    1
    38    19    20   ar
    39    20    15   ar
    40    12     7    1
    41     6     1   ar
    42    33    28   ar
    43    40    35   ar
    44    24    27    1
@<TRIPOS>MOLECULE
*****
 40 44 0 0 0
SMALL
GASTEIGER

@<TRIPOS>ATOM
      1 C          60.0793   92.9062    2.1866 C.ar    1  UNL1        0.1318
      2 C          61.4240   92.2925    2.4414 C.ar    1  UNL1        0.0356
      3 C          61.6624   91.5021    3.6937 C.ar    1  UNL1        0.0191
      4 C          60.5562   91.3254    4.6912 C.ar    1  UNL1        0.0701
      5 C          59.2115   91.9391    4.4364 C.ar    1  UNL1        0.1149
      6 N          58.9730   92.7296    3.1841 N.ar    1  UNL1       -0.2279
      7 C          59.3637   95.2775   -1.5704 C.3     1  UNL1        0.0472
      8 C          59.4529   93.7815   -1.6333 C.3     1  UNL1        0.0252
      9 C          59.6914   92.9911   -0.3810 C.3     1  UNL1        0.0923
     10 N          59.8407   93.6967    0.9342 N.pl3   1  UNL1       -0.2932
     11 C          59.7515   95.1927    0.9971 C.3     1  UNL1        0.0923
     12 C          59.5130   95.9831   -0.2552 C.3     1  UNL1        0.0252
     13 C          59.1252   96.0680   -2.8228 C.3     1  UNL1        0.2054
     14 O          57.8455   95.8956   -3.5861 O.3     1  UNL1       -0.4755
     15 C          56.7642   92.5148   -5.3611 C.ar    1  UNL1        0.0170
     16 C          57.4864   92.6382   -6.6699 C.ar    1  UNL1        0.0013
     17 C          58.3283   93.8474   -6.9509 C.ar    1  UNL1        0.0031
     18 C          58.4480   94.9332   -5.9230 C.ar    1  UNL1        0.0369
     19 C          57.7258   94.8098   -4.6141 C.ar    1  UNL1        0.1386
     20 C          56.8839   93.6006   -4.3332 C.ar    1  UNL1        0.0380
     21 O          55.0155   90.7595   -6.1430 O.co2   1  UNL1       -0.5446
     22 C          55.9223   91.3055   -5.0801 C.2     1  UNL1        0.0730
     23 O          55.9871   90.6423   -3.7363 O.co2   1  UNL1       -0.5446
     24 N          60.7947   90.5349    5.9436 N.am    1  UNL1       -0.2792
     25 C          59.6790   89.7374    6.5510 C.2     1  UNL1        0.2496
     26 O          58.3247   89.7303    5.9062 O.2     1  UNL1       -0.2698
     27 H          61.6836   90.5396    6.3668 H       1  UNL1        0.1552
     28 C          59.9175   88.9469    7.8034 C.ar    1  UNL1        0.0567
     29 C          59.8289   87.4499    7.7737 C.ar    1  UNL1        0.0047
     30 C          60.0674   86.6595    9.0260 C.ar    1  UNL1        0.0033
     31 C          60.3945   87.3662   10.3080 C.ar    1  UNL1        0.0375
     32 C          60.4831   88.8632   10.3377 C.ar    1  UNL1        0.1454
     33 C          60.2446   89.6536    9.0854 C.ar    1  UNL1        0.0420
     34 O          60.8102   89.5699   11.6198 O.3     1  UNL1       -0.4535
     35 C          62.1463   90.2294   11.7929 C.ar    1  UNL1        0.1453
     36 C          62.9102   90.0521   13.0716 C.ar    1  UNL1        0.0375
     37 C          64.2462   90.7116   13.2447 C.ar    1  UNL1        0.0031
     38 C          64.8184   91.5484   12.1391 C.ar    1  UNL1        0.0002
     39 C          64.0546   91.7257   10.8605 C.ar    1  UNL1        0.0031
     40 C          62.7185   91.0662   10.6873 C.ar    1  UNL1        0.0375
@<TRIPOS>UNITY_ATOM_ATTR
21 1
charge -1
@<TRIPOS>BOND
     1    21    22   ar
     2    22    23   ar
     3    22    15    1
     4    15    16   ar
     5    16    17   ar
     6    17    18   ar
     7    18    19   ar
     8    19    14    1
     9    14    13    1
    10    13     7    1
    11     7     8    1
    12     8     9    1
    13     9    10    1
    14    10     1    1
    15     1     2   ar
    16     2     3   ar
    17     3     4   ar
    18     4    24    1
    19    24    25   am
    20    25    26    2
    21    25    28    1
    22    28    29   ar
    23    29    30   ar
    24    30    31   ar
    25    31    32   ar
    26    32    34    1
    27    34    35    1
    28    35    36   ar
    29    36    37   ar
    30    37    38   ar
    31    38    39   ar
    32    39    40   ar
    33    32    33   ar
    34     4     5   ar
    35     5     6   ar
    36    10    11    1
    37    11    12    1
    38    19    20   ar
    39    20    15   ar
    40    12     7    1
    41     6     1   ar
    42    33    28   ar
    43    40    35   ar
    44    24    27    1
@<TRIPOS>MOLECULE
*****
 40 44 0 0 0
SMALL
GASTEIGER

@<TRIPOS>ATOM
      1 C          59.7763   89.9679    6.5493 C.ar    1  UNL1        0.1318
      2 C          60.8848   90.5489    5.7225 C.ar    1  UNL1        0.0356
      3 C          60.5661   91.4655    4.5786 C.ar    1  UNL1        0.0191
      4 C          59.1389   91.8010    4.2616 C.ar    1  UNL1        0.0701
      5 C          58.0304   91.2200    5.0884 C.ar    1  UNL1        0.1149
      6 N          58.3491   90.3035    6.2322 N.ar    1  UNL1       -0.2279
      7 C          60.7323   87.2182    9.9807 C.3     1  UNL1        0.0472
      8 C          60.1099   86.6697    8.7311 C.3     1  UNL1        0.0252
      9 C          59.7913   87.5863    7.5873 C.3     1  UNL1        0.0923
     10 N          60.0950   89.0514    7.6931 N.pl3   1  UNL1       -0.2932
     11 C          60.7173   89.5999    8.9428 C.3     1  UNL1        0.0923
     12 C          61.0360   88.6833   10.0866 C.3     1  UNL1        0.0252
     13 C          61.0510   86.3017   11.1246 C.3     1  UNL1        0.2054
     14 O          62.3644   86.4223   11.8389 O.3     1  UNL1       -0.4755
     15 C          62.8223   82.7573   13.2908 C.ar    1  UNL1        0.0170
     16 C          63.9153   82.9838   14.2928 C.ar    1  UNL1        0.0013
     17 C          64.4913   84.3565   14.4768 C.ar    1  UNL1        0.0031
     18 C          63.9744   85.5027   13.6589 C.ar    1  UNL1        0.0369
     19 C          62.8814   85.2761   12.6569 C.ar    1  UNL1        0.1386
     20 C          62.3054   83.9034   12.4728 C.ar    1  UNL1        0.0380
     21 O          60.9944   80.9928   13.8342 O.co2   1  UNL1       -0.5446
     22 C          62.2463   81.3846   13.1067 C.2     1  UNL1        0.0730
     23 O          62.9221   80.4037   12.1952 O.co2   1  UNL1       -0.5446
     24 N          58.8202   92.7175    3.1177 N.am    1  UNL1       -0.2792
     25 C          59.8898   93.0893    2.1341 C.2     1  UNL1        0.2496
     26 O          61.2782   92.5445    2.2942 O.2     1  UNL1       -0.2698
     27 H          57.9089   93.0751    3.0126 H       1  UNL1        0.1552
     28 C          59.5711   94.0058    0.9902 C.ar    1  UNL1        0.0567
     29 C          59.6356   95.4924    1.1798 C.ar    1  UNL1        0.0047
     30 C          59.3170   96.4089    0.0360 C.ar    1  UNL1        0.0033
     31 C          58.9338   95.8388   -1.2975 C.ar    1  UNL1        0.0375
     32 C          58.8693   94.3523   -1.4872 C.ar    1  UNL1        0.1454
     33 C          59.1879   93.4358   -0.3433 C.ar    1  UNL1        0.0420
     34 O          58.4861   93.7822   -2.8207 O.3     1  UNL1       -0.4535
     35 C          59.3438   94.0446   -4.0229 C.ar    1  UNL1        0.1453
     36 C          60.8345   94.1260   -3.8774 C.ar    1  UNL1        0.0375
     37 C          61.6922   94.3884   -5.0796 C.ar    1  UNL1        0.0031
     38 C          61.0593   94.5692   -6.4275 C.ar    1  UNL1        0.0002
     39 C          59.5686   94.4877   -6.5731 C.ar    1  UNL1        0.0031
     40 C          58.7108   94.2254   -5.3708 C.ar    1  UNL1        0.0375
@<TRIPOS>UNITY_ATOM_ATTR
21 1
charge -1
@<TRIPOS>BOND
     1    21    22   ar
     2    22    23   ar
     3    22    15    1
     4    15    16   ar
     5    16    17   ar
     6    17    18   ar
     7    18    19   ar
     8    19    14    1
     9    14    13    1
    10    13     7    1
    11     7     8    1
    12     8     9    1
    13     9    10    1
    14    10     1    1
    15     1     2   ar
    16     2     3   ar
    17     3     4   ar
    18     4    24    1
    19    24    25   am
    20    25    26    2
    21    25    28    1
    22    28    29   ar
    23    29    30   ar
    24    30    31   ar
    25    31    32   ar
    26    32    34    1
    27    34    35    1
    28    35    36   ar
    29    36    37   ar
    30    37    38   ar
    31    38    39   ar
    32    39    40   ar
    33    32    33   ar
    34     4     5   ar
    35     5     6   ar
    36    10    11    1
    37    11    12    1
    38    19    20   ar
    39    20    15   ar
    40    12     7    1
    41     6     1   ar
    42    33    28   ar
    43    40    35   ar
    44    24    27    1
@<TRIPOS>MOLECULE
*****
 40 44 0 0 0
SMALL
GASTEIGER

@<TRIPOS>ATOM
      1 C          59.7428   89.9749    6.4977 C.ar    1  UNL1        0.1318
      2 C          60.8480   90.4702    5.6129 C.ar    1  UNL1        0.0356
      3 C          60.5331   91.3563    4.4443 C.ar    1  UNL1        0.0191
      4 C          59.1130   91.7471    4.1605 C.ar    1  UNL1        0.0701
      5 C          58.0077   91.2518    5.0454 C.ar    1  UNL1        0.1149
      6 N          58.3226   90.3657    6.2140 N.ar    1  UNL1       -0.2279
      7 C          60.6873   87.3167   10.0037 C.3     1  UNL1        0.0472
      8 C          60.9924   88.7838   10.0712 C.3     1  UNL1        0.0252
      9 C          60.6776   89.6698    8.9026 C.3     1  UNL1        0.0923
     10 N          60.0576   89.0888    7.6664 N.pl3   1  UNL1       -0.2932
     11 C          59.7525   87.6217    7.5989 C.3     1  UNL1        0.0923
     12 C          60.0673   86.7357    8.7675 C.3     1  UNL1        0.0252
     13 C          61.0022   86.4306   11.1723 C.3     1  UNL1        0.2054
     14 O          62.2919   86.6033   11.9185 O.3     1  UNL1       -0.4755
     15 C          62.9295   82.9188   13.2481 C.ar    1  UNL1        0.0170
     16 C          64.0235   83.1625   14.2450 C.ar    1  UNL1        0.0013
     17 C          64.5402   84.5532   14.4664 C.ar    1  UNL1        0.0031
     18 C          63.9631   85.7001   13.6909 C.ar    1  UNL1        0.0369
     19 C          62.8691   85.4563   12.6940 C.ar    1  UNL1        0.1386
     20 C          62.3524   84.0657   12.4726 C.ar    1  UNL1        0.0380
     21 O          62.8835   80.7323   11.8456 O.co2   1  UNL1       -0.5446
     22 C          62.4128   81.5281   13.0267 C.2     1  UNL1        0.0730
     23 O          61.4253   80.9333   13.9863 O.co2   1  UNL1       -0.5446
     24 N          58.7981   92.6332    2.9919 N.am    1  UNL1       -0.2792
     25 C          59.8619   92.9504    1.9831 C.2     1  UNL1        0.2496
     26 O          61.2406   92.3815    2.1429 O.2     1  UNL1       -0.2698
     27 H          57.8933   93.0066    2.8870 H       1  UNL1        0.1552
     28 C          59.5471   93.8365    0.8144 C.ar    1  UNL1        0.0567
     29 C          58.2627   93.6560    0.0609 C.ar    1  UNL1        0.0047
     30 C          57.9480   94.5421   -1.1077 C.ar    1  UNL1        0.0033
     31 C          58.9175   95.6087   -1.5228 C.ar    1  UNL1        0.0375
     32 C          60.2019   95.7892   -0.7692 C.ar    1  UNL1        0.1454
     33 C          60.5166   94.9031    0.3994 C.ar    1  UNL1        0.0420
     34 O          61.1714   96.8559   -1.1843 O.3     1  UNL1       -0.4535
     35 C          62.4394   96.4821   -1.8932 C.ar    1  UNL1        0.1453
     36 C          63.6963   96.2480   -1.1086 C.ar    1  UNL1        0.0375
     37 C          64.9642   95.8743   -1.8174 C.ar    1  UNL1        0.0031
     38 C          64.9754   95.7347   -3.3109 C.ar    1  UNL1        0.0002
     39 C          63.7187   95.9688   -4.0955 C.ar    1  UNL1        0.0031
     40 C          62.4506   96.3426   -3.3866 C.ar    1  UNL1        0.0375
@<TRIPOS>UNITY_ATOM_ATTR
21 1
charge -1
@<TRIPOS>BOND
     1    21    22   ar
     2    22    23   ar
     3    22    15    1
     4    15    16   ar
     5    16    17   ar
     6    17    18   ar
     7    18    19   ar
     8    19    14    1
     9    14    13    1
    10    13     7    1
    11     7     8    1
    12     8     9    1
    13     9    10    1
    14    10     1    1
    15     1     2   ar
    16     2     3   ar
    17     3     4   ar
    18     4    24    1
    19    24    25   am
    20    25    26    2
    21    25    28    1
    22    28    29   ar
    23    29    30   ar
    24    30    31   ar
    25    31    32   ar
    26    32    34    1
    27    34    35    1
    28    35    36   ar
    29    36    37   ar
    30    37    38   ar
    31    38    39   ar
    32    39    40   ar
    33    32    33   ar
    34     4     5   ar
    35     5     6   ar
    36    10    11    1
    37    11    12    1
    38    19    20   ar
    39    20    15   ar
    40    12     7    1
    41     6     1   ar
    42    33    28   ar
    43    40    35   ar
    44    24    27    1
