@<TRIPOS>MOLECULE
*****
 40 45 0 0 0
SMALL
GASTEIGER

@<TRIPOS>ATOM
      1 C          61.8048   88.6139   11.0120 C.3     1  UNL1        0.0933
      2 C          61.8685   89.7665   10.0539 C.3     1  UNL1        0.0442
      3 C          61.0338   89.7529    8.8078 C.3     1  UNL1        0.0953
      4 N          60.1353   88.5869    8.5195 N.am    1  UNL1       -0.2794
      5 C          59.3005   88.5734    7.2733 C.2     1  UNL1        0.2252
      6 O          58.4020   87.4074    6.9851 O.2     1  UNL1       -0.2749
      7 C          60.0715   87.4345    9.4775 C.3     1  UNL1        0.0953
      8 C          60.9063   87.4480   10.7237 C.3     1  UNL1        0.0442
      9 N          63.8523   89.3937   14.2158 N.ar    1  UNL1       -0.2758
     10 C          63.0141   89.8416   13.0553 C.ar    1  UNL1        0.3317
     11 O          62.6196   91.2554   12.7463 O.2     1  UNL1       -0.2463
     12 N          62.6395   88.6274   12.2581 N.ar    1  UNL1       -0.2817
     13 C          63.2463   87.4291   12.9259 C.ar    1  UNL1        0.0796
     14 C          63.2132   85.9679   12.5885 C.ar    1  UNL1        0.0188
     15 C          63.9295   84.9804   13.4611 C.ar    1  UNL1        0.0016
     16 C          64.6791   85.4539   14.6710 C.ar    1  UNL1        0.0016
     17 C          64.7123   86.9151   15.0084 C.ar    1  UNL1        0.0188
     18 C          63.9959   87.9027   14.1358 C.ar    1  UNL1        0.0800
     19 C          64.4433   90.2809   15.2710 C.3     1  UNL1        0.1374
     20 C          67.0891   92.3276   13.1355 C.ar    1  UNL1        0.1385
     21 C          67.6558   93.2385   14.1838 C.ar    1  UNL1        0.0369
     22 C          67.1517   93.1636   15.5946 C.ar    1  UNL1        0.0029
     23 C          66.0809   92.1777   15.9570 C.ar    1  UNL1       -0.0022
     24 C          65.5141   91.2667   14.9086 C.ar    1  UNL1        0.0035
     25 C          66.0182   91.3417   13.4978 C.ar    1  UNL1        0.0345
     26 C          66.6556   92.7652   10.6115 C.3     1  UNL1        0.2525
     27 O          67.5932   92.4026   11.7247 O.3     1  UNL1       -0.4714
     28 C          59.3643   89.7259    6.3154 C.3     1  UNL1        0.0795
     29 C          58.1153   90.4780    5.9625 C.3     1  UNL1        0.0264
     30 C          58.1792   91.6305    5.0046 C.3     1  UNL1        0.0729
     31 N          59.4921   92.0310    4.3996 N.3     1  UNL1       -0.2689
     32 C          60.7410   91.2790    4.7525 C.3     1  UNL1        0.0729
     33 C          60.6771   90.1265    5.7104 C.3     1  UNL1        0.0264
     34 C          59.5559   93.1836    3.4417 C.3     1  UNL1        0.0992
     35 C          60.2233   93.0151    2.1090 C.ar    1  UNL1       -0.0031
     36 C          61.7109   93.1675    1.9905 C.ar    1  UNL1        0.0178
     37 C          62.3783   92.9991    0.6578 C.ar    1  UNL1        0.0986
     38 N          61.5582   92.6783   -0.5564 N.ar    1  UNL1       -0.2423
     39 C          60.0707   92.5259   -0.4380 C.ar    1  UNL1        0.0986
     40 C          59.4033   92.6943    0.8947 C.ar    1  UNL1        0.0178
@<TRIPOS>BOND
     1    26    27    1
     2    27    20    1
     3    20    21   ar
     4    21    22   ar
     5    22    23   ar
     6    23    24   ar
     7    24    19    1
     8    19     9    1
     9     9    10   ar
    10    10    11    2
    11    10    12   ar
    12    12     1    1
    13     1     2    1
    14     2     3    1
    15     3     4    1
    16     4     5   am
    17     5     6    2
    18     5    28    1
    19    28    29    1
    20    29    30    1
    21    30    31    1
    22    31    34    1
    23    34    35    1
    24    35    36   ar
    25    36    37   ar
    26    37    38   ar
    27    38    39   ar
    28    39    40   ar
    29    31    32    1
    30    32    33    1
    31     4     7    1
    32     7     8    1
    33    12    13   ar
    34    13    14   ar
    35    14    15   ar
    36    15    16   ar
    37    16    17   ar
    38    17    18   ar
    39    24    25   ar
    40    25    20   ar
    41    18     9   ar
    42     8     1    1
    43    18    13   ar
    44    33    28    1
    45    40    35   ar
@<TRIPOS>MOLECULE
*****
 40 45 0 0 0
SMALL
GASTEIGER

@<TRIPOS>ATOM
      1 C          61.7431   88.6280   10.6124 C.3     1  UNL1        0.0933
      2 C          61.9290   89.7618    9.6480 C.3     1  UNL1        0.0442
      3 C          61.0311   89.8846    8.4527 C.3     1  UNL1        0.0953
      4 N          59.9474   88.8736    8.2217 N.am    1  UNL1       -0.2794
      5 C          59.0495   88.9963    7.0264 C.2     1  UNL1        0.2252
      6 O          57.9658   87.9853    6.7955 O.2     1  UNL1       -0.2749
      7 C          59.7615   87.7398    9.1861 C.3     1  UNL1        0.0953
      8 C          60.6594   87.6171   10.3814 C.3     1  UNL1        0.0442
      9 N          63.8637   87.5848   13.6914 N.ar    1  UNL1       -0.2758
     10 C          62.9115   87.2493   12.5820 C.ar    1  UNL1        0.3317
     11 O          62.3317   85.8956   12.2969 O.2     1  UNL1       -0.2463
     12 N          62.6410   88.5053   11.8077 N.ar    1  UNL1       -0.2817
     13 C          63.4259   89.6170   12.4386 C.ar    1  UNL1        0.0796
     14 C          63.5502   91.0737   12.1034 C.ar    1  UNL1        0.0188
     15 C          64.4302   91.9616   12.9324 C.ar    1  UNL1        0.0016
     16 C          65.1859   91.3927   14.0966 C.ar    1  UNL1        0.0016
     17 C          65.0616   89.9360   14.4318 C.ar    1  UNL1        0.0188
     18 C          64.1816   89.0481   13.6028 C.ar    1  UNL1        0.0800
     19 C          64.4032   86.6255   14.7105 C.3     1  UNL1        0.1374
     20 C          64.1419   82.8501   13.5156 C.ar    1  UNL1        0.1385
     21 C          63.2256   82.2850   14.5601 C.ar    1  UNL1        0.0369
     22 C          62.7018   83.1667   15.6548 C.ar    1  UNL1        0.0029
     23 C          63.0944   84.6135   15.7049 C.ar    1  UNL1       -0.0022
     24 C          64.0107   85.1787   14.6604 C.ar    1  UNL1        0.0035
     25 C          64.5344   84.2970   13.5657 C.ar    1  UNL1        0.0345
     26 C          64.3182   82.2608   10.9914 C.3     1  UNL1        0.2525
     27 O          64.6656   81.9684   12.4210 O.3     1  UNL1       -0.4714
     28 C          59.2355   90.1301    6.0621 C.3     1  UNL1        0.0795
     29 C          58.0527   90.9387    5.6181 C.3     1  UNL1        0.0264
     30 C          58.2387   92.0726    4.6538 C.3     1  UNL1        0.0729
     31 N          59.6075   92.3977    4.1334 N.3     1  UNL1       -0.2689
     32 C          60.7903   91.5890    4.5774 C.3     1  UNL1        0.0729
     33 C          60.6042   90.4553    5.5417 C.3     1  UNL1        0.0264
     34 C          59.7934   93.5315    3.1691 C.3     1  UNL1        0.0992
     35 C          60.3633   93.2712    1.8062 C.ar    1  UNL1       -0.0031
     36 C          61.8277   93.4759    1.5540 C.ar    1  UNL1        0.0178
     37 C          62.3976   93.2156    0.1911 C.ar    1  UNL1        0.0986
     38 N          61.5031   92.7506   -0.9195 N.ar    1  UNL1       -0.2423
     39 C          60.0387   92.5459   -0.6673 C.ar    1  UNL1        0.0986
     40 C          59.4688   92.8062    0.6956 C.ar    1  UNL1        0.0178
@<TRIPOS>BOND
     1    26    27    1
     2    27    20    1
     3    20    21   ar
     4    21    22   ar
     5    22    23   ar
     6    23    24   ar
     7    24    19    1
     8    19     9    1
     9     9    10   ar
    10    10    11    2
    11    10    12   ar
    12    12     1    1
    13     1     2    1
    14     2     3    1
    15     3     4    1
    16     4     5   am
    17     5     6    2
    18     5    28    1
    19    28    29    1
    20    29    30    1
    21    30    31    1
    22    31    34    1
    23    34    35    1
    24    35    36   ar
    25    36    37   ar
    26    37    38   ar
    27    38    39   ar
    28    39    40   ar
    29    31    32    1
    30    32    33    1
    31     4     7    1
    32     7     8    1
    33    12    13   ar
    34    13    14   ar
    35    14    15   ar
    36    15    16   ar
    37    16    17   ar
    38    17    18   ar
    39    24    25   ar
    40    25    20   ar
    41    18     9   ar
    42     8     1    1
    43    18    13   ar
    44    33    28    1
    45    40    35   ar
@<TRIPOS>MOLECULE
*****
 40 45 0 0 0
SMALL
GASTEIGER

@<TRIPOS>ATOM
      1 C          60.6942   92.4173    3.2667 C.3     1  UNL1        0.0933
      2 C          61.4031   91.6584    4.3491 C.3     1  UNL1        0.0442
      3 C          60.6137   90.8848    5.3632 C.3     1  UNL1        0.0953
      4 N          59.1153   90.8700    5.2948 N.am    1  UNL1       -0.2794
      5 C          58.3259   90.0965    6.3089 C.2     1  UNL1        0.2252
      6 O          56.8275   90.0817    6.2406 O.2     1  UNL1       -0.2749
      7 C          58.4064   91.6289    4.2124 C.3     1  UNL1        0.0953
      8 C          59.1959   92.4025    3.1984 C.3     1  UNL1        0.0442
      9 N          63.2695   93.9015    0.7707 N.ar    1  UNL1       -0.2758
     10 C          62.8717   92.8692    1.7836 C.ar    1  UNL1        0.3317
     11 O          63.7139   91.7175    2.2464 O.2     1  UNL1       -0.2463
     12 N          61.4837   93.1909    2.2526 N.ar    1  UNL1       -0.2817
     13 C          61.0236   94.4219    1.5295 C.ar    1  UNL1        0.0796
     14 C          59.7424   95.1997    1.5867 C.ar    1  UNL1        0.0188
     15 C          59.5648   96.4167    0.7280 C.ar    1  UNL1        0.0016
     16 C          60.6686   96.8559   -0.1878 C.ar    1  UNL1        0.0016
     17 C          61.9498   96.0781   -0.2451 C.ar    1  UNL1        0.0188
     18 C          62.1274   94.8611    0.6136 C.ar    1  UNL1        0.0800
     19 C          64.5795   93.9633    0.0426 C.3     1  UNL1        0.1374
     20 C          64.1404   94.3287   -3.8847 C.ar    1  UNL1        0.1385
     21 C          64.7642   95.6731   -4.1158 C.ar    1  UNL1        0.0369
     22 C          65.3265   96.4476   -2.9608 C.ar    1  UNL1        0.0029
     23 C          65.2649   95.8776   -1.5747 C.ar    1  UNL1       -0.0022
     24 C          64.6410   94.5332   -1.3435 C.ar    1  UNL1        0.0035
     25 C          64.0788   93.7587   -2.4985 C.ar    1  UNL1        0.0345
     26 C          64.3344   92.3854   -5.5981 C.3     1  UNL1        0.2525
     27 O          63.5781   93.5543   -5.0397 O.3     1  UNL1       -0.4714
     28 C          59.0348   89.3377    7.3913 C.3     1  UNL1        0.0795
     29 C          59.7827   90.0782    8.4600 C.3     1  UNL1        0.0264
     30 C          60.4917   89.3193    9.5424 C.3     1  UNL1        0.0729
     31 N          60.4528   87.8199    9.5560 N.3     1  UNL1       -0.2689
     32 C          59.7049   87.0793    8.4873 C.3     1  UNL1        0.0729
     33 C          58.9959   87.8382    7.4049 C.3     1  UNL1        0.0264
     34 C          61.1617   87.0611   10.6384 C.3     1  UNL1        0.0992
     35 C          62.0449   85.9010   10.2861 C.ar    1  UNL1       -0.0031
     36 C          62.5669   85.7533    8.8876 C.ar    1  UNL1        0.0178
     37 C          63.4500   84.5932    8.5352 C.ar    1  UNL1        0.0986
     38 N          63.8112   83.5808    9.5814 N.ar    1  UNL1       -0.2423
     39 C          63.2893   83.7284   10.9799 C.ar    1  UNL1        0.0986
     40 C          62.4061   84.8885   11.3322 C.ar    1  UNL1        0.0178
@<TRIPOS>BOND
     1    26    27    1
     2    27    20    1
     3    20    21   ar
     4    21    22   ar
     5    22    23   ar
     6    23    24   ar
     7    24    19    1
     8    19     9    1
     9     9    10   ar
    10    10    11    2
    11    10    12   ar
    12    12     1    1
    13     1     2    1
    14     2     3    1
    15     3     4    1
    16     4     5   am
    17     5     6    2
    18     5    28    1
    19    28    29    1
    20    29    30    1
    21    30    31    1
    22    31    34    1
    23    34    35    1
    24    35    36   ar
    25    36    37   ar
    26    37    38   ar
    27    38    39   ar
    28    39    40   ar
    29    31    32    1
    30    32    33    1
    31     4     7    1
    32     7     8    1
    33    12    13   ar
    34    13    14   ar
    35    14    15   ar
    36    15    16   ar
    37    16    17   ar
    38    17    18   ar
    39    24    25   ar
    40    25    20   ar
    41    18     9   ar
    42     8     1    1
    43    18    13   ar
    44    33    28    1
    45    40    35   ar
@<TRIPOS>MOLECULE
*****
 40 45 0 0 0
SMALL
GASTEIGER

@<TRIPOS>ATOM
      1 C          61.1981   92.4135    2.6458 C.3     1  UNL1        0.0933
      2 C          61.8132   91.5926    3.7404 C.3     1  UNL1        0.0442
      3 C          60.9459   91.0001    4.8112 C.3     1  UNL1        0.0953
      4 N          59.4635   91.2284    4.7875 N.am    1  UNL1       -0.2794
      5 C          58.5962   90.6359    5.8583 C.2     1  UNL1        0.2252
      6 O          57.1139   90.8642    5.8346 O.2     1  UNL1       -0.2749
      7 C          58.8485   92.0492    3.6930 C.3     1  UNL1        0.0953
      8 C          59.7159   92.6417    2.6221 C.3     1  UNL1        0.0442
      9 N          63.0121   93.5435   -0.5942 N.ar    1  UNL1       -0.2758
     10 C          61.9474   92.7487    0.1019 C.ar    1  UNL1        0.3317
     11 O          60.9413   91.8537   -0.5589 O.2     1  UNL1       -0.2463
     12 N          62.0655   93.0060    1.5750 N.ar    1  UNL1       -0.2817
     13 C          63.2032   93.9598    1.7892 C.ar    1  UNL1        0.0796
     14 C          63.7819   94.5688    3.0319 C.ar    1  UNL1        0.0188
     15 C          64.9457   95.5099    2.9339 C.ar    1  UNL1        0.0016
     16 C          65.5308   95.8421    1.5932 C.ar    1  UNL1        0.0016
     17 C          64.9521   95.2332    0.3506 C.ar    1  UNL1        0.0188
     18 C          63.7882   94.2920    0.4486 C.ar    1  UNL1        0.0800
     19 C          63.2577   93.5829   -2.0734 C.3     1  UNL1        0.1374
     20 C          60.0845   94.6819   -4.1884 C.ar    1  UNL1        0.1385
     21 C          60.5527   95.9959   -4.7400 C.ar    1  UNL1        0.0369
     22 C          61.9226   96.5056   -4.4028 C.ar    1  UNL1        0.0029
     23 C          62.8242   95.7012   -3.5139 C.ar    1  UNL1       -0.0022
     24 C          62.3561   94.3872   -2.9622 C.ar    1  UNL1        0.0035
     25 C          60.9862   93.8776   -3.2995 C.ar    1  UNL1        0.0345
     26 C          58.1860   92.9404   -3.8527 C.3     1  UNL1        0.2525
     27 O          58.7146   94.1723   -4.5256 O.3     1  UNL1       -0.4714
     28 C          59.2113   89.8151    6.9528 C.3     1  UNL1        0.0795
     29 C          60.0646   90.4743    7.9955 C.3     1  UNL1        0.0264
     30 C          60.6797   89.6533    9.0901 C.3     1  UNL1        0.0729
     31 N          60.4414   88.1733    9.1418 N.3     1  UNL1       -0.2689
     32 C          59.5880   87.5141    8.0991 C.3     1  UNL1        0.0729
     33 C          58.9730   88.3350    7.0046 C.3     1  UNL1        0.0264
     34 C          61.0565   87.3525   10.2363 C.3     1  UNL1        0.0992
     35 C          61.9273   86.1797    9.8954 C.ar    1  UNL1       -0.0031
     36 C          62.3539   85.2247   10.9705 C.ar    1  UNL1        0.0178
     37 C          63.2247   84.0519   10.6296 C.ar    1  UNL1        0.0986
     38 N          63.6689   83.8341    9.2135 N.ar    1  UNL1       -0.2423
     39 C          63.2422   84.7892    8.1384 C.ar    1  UNL1        0.0986
     40 C          62.3714   85.9620    8.4793 C.ar    1  UNL1        0.0178
@<TRIPOS>BOND
     1    26    27    1
     2    27    20    1
     3    20    21   ar
     4    21    22   ar
     5    22    23   ar
     6    23    24   ar
     7    24    19    1
     8    19     9    1
     9     9    10   ar
    10    10    11    2
    11    10    12   ar
    12    12     1    1
    13     1     2    1
    14     2     3    1
    15     3     4    1
    16     4     5   am
    17     5     6    2
    18     5    28    1
    19    28    29    1
    20    29    30    1
    21    30    31    1
    22    31    34    1
    23    34    35    1
    24    35    36   ar
    25    36    37   ar
    26    37    38   ar
    27    38    39   ar
    28    39    40   ar
    29    31    32    1
    30    32    33    1
    31     4     7    1
    32     7     8    1
    33    12    13   ar
    34    13    14   ar
    35    14    15   ar
    36    15    16   ar
    37    16    17   ar
    38    17    18   ar
    39    24    25   ar
    40    25    20   ar
    41    18     9   ar
    42     8     1    1
    43    18    13   ar
    44    33    28    1
    45    40    35   ar
@<TRIPOS>MOLECULE
*****
 40 45 0 0 0
SMALL
GASTEIGER

@<TRIPOS>ATOM
      1 C          61.3435   92.5360    2.5990 C.3     1  UNL1        0.0933
      2 C          61.9255   91.5210    3.5377 C.3     1  UNL1        0.0442
      3 C          61.0649   90.8988    4.5971 C.3     1  UNL1        0.0953
      4 N          59.6223   91.2916    4.7177 N.am    1  UNL1       -0.2794
      5 C          58.7616   90.6694    5.7771 C.2     1  UNL1        0.2252
      6 O          57.3190   91.0622    5.8978 O.2     1  UNL1       -0.2749
      7 C          59.0403   92.3066    3.7791 C.3     1  UNL1        0.0953
      8 C          59.9009   92.9287    2.7197 C.3     1  UNL1        0.0442
      9 N          63.1543   93.7355   -0.6177 N.ar    1  UNL1       -0.2758
     10 C          62.1046   92.9089    0.0639 C.ar    1  UNL1        0.3317
     11 O          61.1269   91.9936   -0.6117 O.2     1  UNL1       -0.2463
     12 N          62.2041   93.1582    1.5397 N.ar    1  UNL1       -0.2817
     13 C          63.3154   94.1390    1.7702 C.ar    1  UNL1        0.0796
     14 C          63.8685   94.7532    3.0219 C.ar    1  UNL1        0.0188
     15 C          65.0088   95.7243    2.9402 C.ar    1  UNL1        0.0016
     16 C          65.5960   96.0811    1.6069 C.ar    1  UNL1        0.0016
     17 C          65.0430   95.4668    0.3552 C.ar    1  UNL1        0.0188
     18 C          63.9027   94.4958    0.4368 C.ar    1  UNL1        0.0800
     19 C          63.4108   93.7921   -2.0945 C.3     1  UNL1        0.1374
     20 C          60.2111   95.7522   -3.3866 C.ar    1  UNL1        0.1385
     21 C          60.2835   95.4740   -4.8588 C.ar    1  UNL1        0.0369
     22 C          61.3984   94.6351   -5.4096 C.ar    1  UNL1        0.0029
     23 C          62.4408   94.0745   -4.4881 C.ar    1  UNL1       -0.0022
     24 C          62.3684   94.3527   -3.0159 C.ar    1  UNL1        0.0035
     25 C          61.2535   95.1916   -2.4651 C.ar    1  UNL1        0.0345
     26 C          57.7021   96.4264   -3.3644 C.3     1  UNL1        0.2525
     27 O          59.0962   96.5912   -2.8359 O.3     1  UNL1       -0.4714
     28 C          59.3437   89.6545    6.7157 C.3     1  UNL1        0.0795
     29 C          59.2378   88.1922    6.3988 C.3     1  UNL1        0.0264
     30 C          59.8200   87.1772    7.3376 C.3     1  UNL1        0.0729
     31 N          60.5079   87.6247    8.5932 N.3     1  UNL1       -0.2689
     32 C          60.6138   89.0870    8.9101 C.3     1  UNL1        0.0729
     33 C          60.0317   90.1018    7.9714 C.3     1  UNL1        0.0264
     34 C          61.0900   86.6097    9.5318 C.3     1  UNL1        0.0992
     35 C          61.9179   87.0565   10.7001 C.ar    1  UNL1       -0.0031
     36 C          62.2222   88.5129   10.8904 C.ar    1  UNL1        0.0178
     37 C          63.0502   88.9597   12.0587 C.ar    1  UNL1        0.0986
     38 N          63.5739   87.9500   13.0366 N.ar    1  UNL1       -0.2423
     39 C          63.2696   86.4936   12.8462 C.ar    1  UNL1        0.0986
     40 C          62.4416   86.0468   11.6780 C.ar    1  UNL1        0.0178
@<TRIPOS>BOND
     1    26    27    1
     2    27    20    1
     3    20    21   ar
     4    21    22   ar
     5    22    23   ar
     6    23    24   ar
     7    24    19    1
     8    19     9    1
     9     9    10   ar
    10    10    11    2
    11    10    12   ar
    12    12     1    1
    13     1     2    1
    14     2     3    1
    15     3     4    1
    16     4     5   am
    17     5     6    2
    18     5    28    1
    19    28    29    1
    20    29    30    1
    21    30    31    1
    22    31    34    1
    23    34    35    1
    24    35    36   ar
    25    36    37   ar
    26    37    38   ar
    27    38    39   ar
    28    39    40   ar
    29    31    32    1
    30    32    33    1
    31     4     7    1
    32     7     8    1
    33    12    13   ar
    34    13    14   ar
    35    14    15   ar
    36    15    16   ar
    37    16    17   ar
    38    17    18   ar
    39    24    25   ar
    40    25    20   ar
    41    18     9   ar
    42     8     1    1
    43    18    13   ar
    44    33    28    1
    45    40    35   ar
