@<TRIPOS>MOLECULE
*****
 32 35 0 0 0
SMALL
GASTEIGER

@<TRIPOS>ATOM
      1 C          63.3849   87.3309   16.1397 C.ar    1  UNL1        0.1803
      2 C          64.1859   87.6919   14.9239 C.ar    1  UNL1        0.0516
      3 C          64.5783   89.1190   14.6807 C.ar    1  UNL1        0.0019
      4 C          64.1697   90.1853   15.6534 C.ar    1  UNL1       -0.0023
      5 C          63.3688   89.8245   16.8692 C.ar    1  UNL1        0.0019
      6 C          62.9763   88.3972   17.1124 C.ar    1  UNL1        0.0516
      7 S          62.9925   85.9038   16.3828 S.O     1  UNL1        0.0474
      8 O          62.2886   85.5253   17.6522 O.co2   1  UNL1       -0.6776
      9 N          63.9269   82.7577   13.3041 N.3     1  UNL1       -0.2723
     10 C          64.9538   83.7938   13.6531 C.3     1  UNL1        0.0773
     11 C          64.6423   84.8425   14.6794 C.3     1  UNL1        0.0767
     12 C          63.3040   84.8551   15.3566 C.3     1  UNL1        0.2101
     13 C          62.2770   83.8189   15.0075 C.3     1  UNL1        0.0767
     14 C          62.5885   82.7702   13.9813 C.3     1  UNL1        0.0773
     15 C          64.2384   81.7090   12.2779 C.3     1  UNL1        0.0721
     16 C          63.0439   80.7260   10.1905 C.3     1  UNL1        0.0014
     17 C          63.7426   81.8658   10.8709 C.3     1  UNL1        0.0160
     18 C          63.9455   83.1623   10.1443 C.3     1  UNL1        0.0014
     19 C          64.5622   91.6126   15.4102 C.3     1  UNL1        0.1167
     20 N          64.9397   92.0618   14.0298 N.am    1  UNL1       -0.2944
     21 C          66.0803   93.0168   13.8375 C.2     1  UNL1        0.2808
     22 O          66.8434   93.5225   15.0257 O.2     1  UNL1       -0.2668
     23 H          64.4389   91.7298   13.2499 H       1  UNL1        0.1501
     24 C          66.4579   93.4660   12.4571 C.ar    1  UNL1        0.1984
     25 C          66.1506   94.8027   11.8500 C.ar    1  UNL1        0.0453
     26 C          66.7118   94.8202   10.4590 C.ar    1  UNL1        0.0409
     27 C          66.7117   95.8722    9.3898 C.ar    1  UNL1        0.0238
     28 C          67.3657   95.5983    8.0680 C.ar    1  UNL1        0.0991
     29 N          68.0199   94.2723    7.8155 N.ar    1  UNL1       -0.2391
     30 C          68.0200   93.2202    8.8847 C.ar    1  UNL1        0.1362
     31 C          67.3659   93.4942   10.2064 C.ar    1  UNL1        0.1646
     32 O          67.2090   92.6573   11.4413 O.2     1  UNL1       -0.4473
@<TRIPOS>UNITY_ATOM_ATTR
7 1
charge 1
8 1
charge -1
@<TRIPOS>BOND
     1    16    17    1
     2    17    18    1
     3    17    15    1
     4    15     9    1
     5     9    10    1
     6    10    11    1
     7    11    12    1
     8    12     7    1
     9     7     8    2
    10     7     1    1
    11     1     2   ar
    12     2     3   ar
    13     3     4   ar
    14     4    19    1
    15    19    20    1
    16    20    21   am
    17    21    22    2
    18    21    24    1
    19    24    25   ar
    20    25    26   ar
    21    26    27   ar
    22    27    28   ar
    23    28    29   ar
    24    29    30   ar
    25    30    31   ar
    26    31    32   ar
    27     4     5   ar
    28     5     6   ar
    29    12    13    1
    30    13    14    1
    31    14     9    1
    32     6     1   ar
    33    32    24   ar
    34    31    26   ar
    35    20    23    1
@<TRIPOS>MOLECULE
*****
 32 35 0 0 0
SMALL
GASTEIGER

@<TRIPOS>ATOM
      1 C          61.7788   88.1934   10.7438 C.ar    1  UNL1        0.1803
      2 C          61.0212   89.4880   10.7367 C.ar    1  UNL1        0.0516
      3 C          60.1906   89.8644    9.5458 C.ar    1  UNL1        0.0019
      4 C          60.1176   88.9462    8.3619 C.ar    1  UNL1       -0.0023
      5 C          60.8751   87.6517    8.3689 C.ar    1  UNL1        0.0019
      6 C          61.7058   87.2752    9.5599 C.ar    1  UNL1        0.0516
      7 S          62.6094   87.8169   11.9347 S.O     1  UNL1        0.0474
      8 O          62.6688   86.3877   12.3862 O.co2   1  UNL1       -0.6776
      9 N          64.9231   90.9754   14.1531 N.3     1  UNL1       -0.2723
     10 C          64.7670   89.6058   14.7445 C.3     1  UNL1        0.0773
     11 C          63.9958   88.5530   14.0051 C.3     1  UNL1        0.0767
     12 C          63.3806   88.8697   12.6742 C.3     1  UNL1        0.2101
     13 C          63.5367   90.2394   12.0827 C.3     1  UNL1        0.0767
     14 C          64.3080   91.2922   12.8222 C.3     1  UNL1        0.0773
     15 C          65.6943   92.0282   14.8925 C.3     1  UNL1        0.0721
     16 C          67.8839   91.8494   13.5055 C.3     1  UNL1        0.0014
     17 C          67.1925   92.0491   14.8216 C.3     1  UNL1        0.0160
     18 C          67.9992   92.2696   16.0668 C.3     1  UNL1        0.0014
     19 C          59.2869   89.3227    7.1709 C.3     1  UNL1        0.1167
     20 N          59.8969   90.1112    6.0501 N.am    1  UNL1       -0.2944
     21 C          59.0487   91.0519    5.2465 C.2     1  UNL1        0.2808
     22 O          57.5906   91.2040    5.5637 O.2     1  UNL1       -0.2668
     23 H          60.8539   90.0114    5.8420 H       1  UNL1        0.1501
     24 C          59.6587   91.8404    4.1258 C.ar    1  UNL1        0.1984
     25 C          61.1175   91.9003    3.7818 C.ar    1  UNL1        0.0453
     26 C          61.2774   92.8044    2.5956 C.ar    1  UNL1        0.0409
     27 C          62.4857   93.2378    1.8197 C.ar    1  UNL1        0.0238
     28 C          62.3339   94.1701    0.6544 C.ar    1  UNL1        0.0991
     29 N          60.9739   94.6690    0.2652 N.ar    1  UNL1       -0.2391
     30 C          59.7657   94.2355    1.0412 C.ar    1  UNL1        0.1362
     31 C          59.9174   93.3032    2.2064 C.ar    1  UNL1        0.1646
     32 O          58.9170   92.7075    3.1521 O.2     1  UNL1       -0.4473
@<TRIPOS>UNITY_ATOM_ATTR
7 1
charge 1
8 1
charge -1
@<TRIPOS>BOND
     1    16    17    1
     2    17    18    1
     3    17    15    1
     4    15     9    1
     5     9    10    1
     6    10    11    1
     7    11    12    1
     8    12     7    1
     9     7     8    2
    10     7     1    1
    11     1     2   ar
    12     2     3   ar
    13     3     4   ar
    14     4    19    1
    15    19    20    1
    16    20    21   am
    17    21    22    2
    18    21    24    1
    19    24    25   ar
    20    25    26   ar
    21    26    27   ar
    22    27    28   ar
    23    28    29   ar
    24    29    30   ar
    25    30    31   ar
    26    31    32   ar
    27     4     5   ar
    28     5     6   ar
    29    12    13    1
    30    13    14    1
    31    14     9    1
    32     6     1   ar
    33    32    24   ar
    34    31    26   ar
    35    20    23    1
@<TRIPOS>MOLECULE
*****
 32 35 0 0 0
SMALL
GASTEIGER

@<TRIPOS>ATOM
      1 C          61.9829   87.9955   10.9900 C.ar    1  UNL1        0.1803
      2 C          61.2419   89.2995   11.0177 C.ar    1  UNL1        0.0516
      3 C          60.3828   89.6988    9.8547 C.ar    1  UNL1        0.0019
      4 C          60.2646   88.7941    8.6641 C.ar    1  UNL1       -0.0023
      5 C          61.0055   87.4902    8.6363 C.ar    1  UNL1        0.0019
      6 C          61.8647   87.0909    9.7993 C.ar    1  UNL1        0.0516
      7 S          62.8420   87.5962   12.1529 S.O     1  UNL1        0.0474
      8 O          63.5116   88.6480   12.9867 O.co2   1  UNL1       -0.6776
      9 N          63.4103   83.2428   13.1401 N.3     1  UNL1       -0.2723
     10 C          64.0170   84.2964   14.0186 C.3     1  UNL1        0.0773
     11 C          63.8276   85.7476   13.6895 C.3     1  UNL1        0.0767
     12 C          63.0314   86.1451   12.4820 C.3     1  UNL1        0.2101
     13 C          62.4247   85.0913   11.6035 C.3     1  UNL1        0.0767
     14 C          62.6142   83.6402   11.9326 C.3     1  UNL1        0.0773
     15 C          63.5998   81.7917   13.4692 C.3     1  UNL1        0.0721
     16 C          62.5615   79.6468   12.4340 C.3     1  UNL1        0.0014
     17 C          62.4500   80.8370   13.3402 C.3     1  UNL1        0.0160
     18 C          61.1888   81.0725   14.1173 C.3     1  UNL1        0.0014
     19 C          59.4054   89.1935    7.5011 C.3     1  UNL1        0.1167
     20 N          59.9914   89.9932    6.3754 N.am    1  UNL1       -0.2944
     21 C          59.0979   90.8162    5.4955 C.2     1  UNL1        0.2808
     22 O          57.6184   90.8395    5.7413 O.2     1  UNL1       -0.2668
     23 H          60.9625   89.9779    6.2142 H       1  UNL1        0.1501
     24 C          59.6839   91.6159    4.3699 C.ar    1  UNL1        0.1984
     25 C          61.1370   91.6922    4.0057 C.ar    1  UNL1        0.0453
     26 C          61.2709   92.6032    2.8215 C.ar    1  UNL1        0.0409
     27 C          62.4635   93.0524    2.0305 C.ar    1  UNL1        0.0238
     28 C          62.2858   93.9882    0.8719 C.ar    1  UNL1        0.0991
     29 N          60.9154   94.4749    0.5042 N.ar    1  UNL1       -0.2391
     30 C          59.7227   94.0257    1.2952 C.ar    1  UNL1        0.1362
     31 C          59.9005   93.0898    2.4538 C.ar    1  UNL1        0.1646
     32 O          58.9197   92.4796    3.4108 O.2     1  UNL1       -0.4473
@<TRIPOS>UNITY_ATOM_ATTR
7 1
charge 1
8 1
charge -1
@<TRIPOS>BOND
     1    16    17    1
     2    17    18    1
     3    17    15    1
     4    15     9    1
     5     9    10    1
     6    10    11    1
     7    11    12    1
     8    12     7    1
     9     7     8    2
    10     7     1    1
    11     1     2   ar
    12     2     3   ar
    13     3     4   ar
    14     4    19    1
    15    19    20    1
    16    20    21   am
    17    21    22    2
    18    21    24    1
    19    24    25   ar
    20    25    26   ar
    21    26    27   ar
    22    27    28   ar
    23    28    29   ar
    24    29    30   ar
    25    30    31   ar
    26    31    32   ar
    27     4     5   ar
    28     5     6   ar
    29    12    13    1
    30    13    14    1
    31    14     9    1
    32     6     1   ar
    33    32    24   ar
    34    31    26   ar
    35    20    23    1
@<TRIPOS>MOLECULE
*****
 32 35 0 0 0
SMALL
GASTEIGER

@<TRIPOS>ATOM
      1 C          60.7669   92.5670    2.9522 C.ar    1  UNL1        0.1803
      2 C          59.3144   92.6967    3.3036 C.ar    1  UNL1        0.0516
      3 C          58.7355   91.8734    4.4158 C.ar    1  UNL1        0.0019
      4 C          59.6090   90.9205    5.1767 C.ar    1  UNL1       -0.0023
      5 C          61.0615   90.7909    4.8253 C.ar    1  UNL1        0.0019
      6 C          61.6405   91.6141    3.7130 C.ar    1  UNL1        0.0516
      7 S          61.3458   93.3903    1.8399 S.O     1  UNL1        0.0474
      8 O          62.7640   93.8718    1.9230 O.co2   1  UNL1       -0.6776
      9 N          58.8279   94.4156   -1.7459 N.3     1  UNL1       -0.2723
     10 C          59.4773   93.0672   -1.6464 C.3     1  UNL1        0.0773
     11 C          60.3166   92.7254   -0.4510 C.3     1  UNL1        0.0767
     12 C          60.5065   93.7320    0.6447 C.3     1  UNL1        0.2101
     13 C          59.8570   95.0805    0.5450 C.3     1  UNL1        0.0767
     14 C          59.0177   95.4223   -0.6502 C.3     1  UNL1        0.0773
     15 C          57.9886   94.7574   -2.9412 C.3     1  UNL1        0.0721
     16 C          55.7977   93.8461   -1.8829 C.3     1  UNL1        0.0014
     17 C          56.6238   94.1547   -3.0964 C.3     1  UNL1        0.0160
     18 C          56.0850   93.8606   -4.4650 C.3     1  UNL1        0.0014
     19 C          59.0301   90.0972    6.2889 C.3     1  UNL1        0.1167
     20 N          59.8985   89.6667    7.4337 N.am    1  UNL1       -0.2944
     21 C          59.6955   88.3208    8.0642 C.2     1  UNL1        0.2808
     22 O          58.6242   87.4056    7.5499 O.2     1  UNL1       -0.2668
     23 H          60.6016   90.2674    7.7712 H       1  UNL1        0.1501
     24 C          60.5639   87.8903    9.2089 C.ar    1  UNL1        0.1984
     25 C          60.7621   86.4813    9.6839 C.ar    1  UNL1        0.0453
     26 C          61.7073   86.5133   10.8483 C.ar    1  UNL1        0.0409
     27 C          62.2664   85.4261   11.7173 C.ar    1  UNL1        0.0238
     28 C          63.2114   85.7675   12.8310 C.ar    1  UNL1        0.0991
     29 N          63.5973   87.1963   13.0756 N.ar    1  UNL1       -0.2391
     30 C          63.0383   88.2835   12.2065 C.ar    1  UNL1        0.1362
     31 C          62.0933   87.9420   11.0929 C.ar    1  UNL1        0.1646
     32 O          61.3866   88.7930   10.0797 O.2     1  UNL1       -0.4473
@<TRIPOS>UNITY_ATOM_ATTR
7 1
charge 1
8 1
charge -1
@<TRIPOS>BOND
     1    16    17    1
     2    17    18    1
     3    17    15    1
     4    15     9    1
     5     9    10    1
     6    10    11    1
     7    11    12    1
     8    12     7    1
     9     7     8    2
    10     7     1    1
    11     1     2   ar
    12     2     3   ar
    13     3     4   ar
    14     4    19    1
    15    19    20    1
    16    20    21   am
    17    21    22    2
    18    21    24    1
    19    24    25   ar
    20    25    26   ar
    21    26    27   ar
    22    27    28   ar
    23    28    29   ar
    24    29    30   ar
    25    30    31   ar
    26    31    32   ar
    27     4     5   ar
    28     5     6   ar
    29    12    13    1
    30    13    14    1
    31    14     9    1
    32     6     1   ar
    33    32    24   ar
    34    31    26   ar
    35    20    23    1
@<TRIPOS>MOLECULE
*****
 32 35 0 0 0
SMALL
GASTEIGER

@<TRIPOS>ATOM
      1 C          61.1287   87.8566    9.8040 C.ar    1  UNL1        0.1803
      2 C          61.2007   89.3443    9.6257 C.ar    1  UNL1        0.0516
      3 C          60.5083   89.9949    8.4650 C.ar    1  UNL1        0.0019
      4 C          59.7441   89.1579    7.4825 C.ar    1  UNL1       -0.0023
      5 C          59.6721   87.6703    7.6607 C.ar    1  UNL1        0.0019
      6 C          60.3644   87.0196    8.8215 C.ar    1  UNL1        0.0516
      7 S          61.8210   87.2060   10.9647 S.O     1  UNL1        0.0474
      8 O          61.9740   87.9487   12.2590 O.co2   1  UNL1       -0.6776
      9 N          63.4392   83.0262   10.5641 N.3     1  UNL1       -0.2723
     10 C          62.9140   83.5036   11.8855 C.3     1  UNL1        0.0773
     11 C          62.3746   84.8970   12.0191 C.3     1  UNL1        0.0767
     12 C          62.3604   85.8128   10.8312 C.3     1  UNL1        0.2101
     13 C          62.8856   85.3353    9.5098 C.3     1  UNL1        0.0767
     14 C          63.4250   83.9420    9.3762 C.3     1  UNL1        0.0773
     15 C          63.9786   81.6329   10.4306 C.3     1  UNL1        0.0721
     16 C          62.7409   79.4373    9.8001 C.3     1  UNL1        0.0014
     17 C          63.1316   80.4597   10.8259 C.3     1  UNL1        0.0160
     18 C          62.6754   80.3089   12.2468 C.3     1  UNL1        0.0014
     19 C          59.0517   89.8086    6.3217 C.3     1  UNL1        0.1167
     20 N          59.8565   90.4832    5.2506 N.am    1  UNL1       -0.2944
     21 C          59.2791   91.6454    4.4984 C.2     1  UNL1        0.2808
     22 O          57.8969   92.1329    4.8172 O.2     1  UNL1       -0.2668
     23 H          60.7638   90.1632    5.0414 H       1  UNL1        0.1501
     24 C          60.0840   92.3200    3.4273 C.ar    1  UNL1        0.1984
     25 C          59.5363   93.1446    2.3004 C.ar    1  UNL1        0.0453
     26 C          60.6916   93.6227    1.4717 C.ar    1  UNL1        0.0409
     27 C          60.7577   94.4715    0.2368 C.ar    1  UNL1        0.0238
     28 C          62.0856   94.7912   -0.3833 C.ar    1  UNL1        0.0991
     29 N          63.3473   94.2620    0.2315 N.ar    1  UNL1       -0.2391
     30 C          63.2812   93.4132    1.4664 C.ar    1  UNL1        0.1362
     31 C          61.9533   93.0936    2.0866 C.ar    1  UNL1        0.1646
     32 O          61.5778   92.2885    3.2952 O.2     1  UNL1       -0.4473
@<TRIPOS>UNITY_ATOM_ATTR
7 1
charge 1
8 1
charge -1
@<TRIPOS>BOND
     1    16    17    1
     2    17    18    1
     3    17    15    1
     4    15     9    1
     5     9    10    1
     6    10    11    1
     7    11    12    1
     8    12     7    1
     9     7     8    2
    10     7     1    1
    11     1     2   ar
    12     2     3   ar
    13     3     4   ar
    14     4    19    1
    15    19    20    1
    16    20    21   am
    17    21    22    2
    18    21    24    1
    19    24    25   ar
    20    25    26   ar
    21    26    27   ar
    22    27    28   ar
    23    28    29   ar
    24    29    30   ar
    25    30    31   ar
    26    31    32   ar
    27     4     5   ar
    28     5     6   ar
    29    12    13    1
    30    13    14    1
    31    14     9    1
    32     6     1   ar
    33    32    24   ar
    34    31    26   ar
    35    20    23    1
@<TRIPOS>MOLECULE
*****
 32 35 0 0 0
SMALL
GASTEIGER

@<TRIPOS>ATOM
      1 C          61.2199   86.7921    9.2543 C.ar    1  UNL1        0.1803
      2 C          61.2237   88.2489    9.6119 C.ar    1  UNL1        0.0516
      3 C          60.4580   89.2290    8.7734 C.ar    1  UNL1        0.0019
      4 C          59.6884   88.7523    7.5774 C.ar    1  UNL1       -0.0023
      5 C          59.6846   87.2956    7.2198 C.ar    1  UNL1        0.0019
      6 C          60.4503   86.3155    8.0583 C.ar    1  UNL1        0.0516
      7 S          61.9857   85.8121   10.0928 S.O     1  UNL1        0.0474
      8 O          62.1581   84.3977    9.6238 O.co2   1  UNL1       -0.6776
      9 N          63.7658   87.1149   14.0150 N.3     1  UNL1       -0.2723
     10 C          63.4105   88.1370   12.9763 C.3     1  UNL1        0.0773
     11 C          62.8171   87.7028   11.6688 C.3     1  UNL1        0.0767
     12 C          62.5790   86.2463   11.4001 C.3     1  UNL1        0.2101
     13 C          62.9344   85.2242   12.4390 C.3     1  UNL1        0.0767
     14 C          63.5277   85.6585   13.7463 C.3     1  UNL1        0.0773
     15 C          64.3591   87.5492   15.3224 C.3     1  UNL1        0.0721
     16 C          63.2046   89.6152   16.3942 C.3     1  UNL1        0.0014
     17 C          63.4810   88.1409   16.3849 C.3     1  UNL1        0.0160
     18 C          62.8793   87.2583   17.4379 C.3     1  UNL1        0.0014
     19 C          58.9226   89.7325    6.7389 C.3     1  UNL1        0.1167
     20 N          59.6087   90.4597    5.6207 N.am    1  UNL1       -0.2944
     21 C          58.8595   91.4840    4.8211 C.2     1  UNL1        0.2808
     22 O          57.4242   91.7812    5.1398 O.2     1  UNL1       -0.2668
     23 H          60.5507   90.2646    5.4115 H       1  UNL1        0.1501
     24 C          59.5455   92.2112    3.7029 C.ar    1  UNL1        0.1984
     25 C          61.0279   92.3339    3.5094 C.ar    1  UNL1        0.0453
     26 C          61.2683   93.1419    2.2688 C.ar    1  UNL1        0.0409
     27 C          62.5293   93.5833    1.5870 C.ar    1  UNL1        0.0238
     28 C          62.4565   94.4015    0.3320 C.ar    1  UNL1        0.0991
     29 N          61.1226   94.7783   -0.2414 N.ar    1  UNL1       -0.2391
     30 C          59.8615   94.3369    0.4403 C.ar    1  UNL1        0.1362
     31 C          59.9344   93.5187    1.6954 C.ar    1  UNL1        0.1646
     32 O          58.8697   92.9435    2.5817 O.2     1  UNL1       -0.4473
@<TRIPOS>UNITY_ATOM_ATTR
7 1
charge 1
8 1
charge -1
@<TRIPOS>BOND
     1    16    17    1
     2    17    18    1
     3    17    15    1
     4    15     9    1
     5     9    10    1
     6    10    11    1
     7    11    12    1
     8    12     7    1
     9     7     8    2
    10     7     1    1
    11     1     2   ar
    12     2     3   ar
    13     3     4   ar
    14     4    19    1
    15    19    20    1
    16    20    21   am
    17    21    22    2
    18    21    24    1
    19    24    25   ar
    20    25    26   ar
    21    26    27   ar
    22    27    28   ar
    23    28    29   ar
    24    29    30   ar
    25    30    31   ar
    26    31    32   ar
    27     4     5   ar
    28     5     6   ar
    29    12    13    1
    30    13    14    1
    31    14     9    1
    32     6     1   ar
    33    32    24   ar
    34    31    26   ar
    35    20    23    1
@<TRIPOS>MOLECULE
*****
 32 35 0 0 0
SMALL
GASTEIGER

@<TRIPOS>ATOM
      1 C          60.5802   92.5219    3.0847 C.ar    1  UNL1        0.1803
      2 C          59.1240   92.5716    3.4413 C.ar    1  UNL1        0.0516
      3 C          58.5940   91.7131    4.5512 C.ar    1  UNL1        0.0019
      4 C          59.5200   90.8048    5.3045 C.ar    1  UNL1       -0.0023
      5 C          60.9761   90.7551    4.9479 C.ar    1  UNL1        0.0019
      6 C          61.5062   91.6137    3.8379 C.ar    1  UNL1        0.0516
      7 S          61.1102   93.3805    1.9748 S.O     1  UNL1        0.0474
      8 O          62.4787   93.9852    2.0824 O.co2   1  UNL1       -0.6776
      9 N          58.5948   94.1422   -1.6779 N.3     1  UNL1       -0.2723
     10 C          59.2643   92.8129   -1.4923 C.3     1  UNL1        0.0773
     11 C          60.1029   92.5589   -0.2747 C.3     1  UNL1        0.0767
     12 C          60.2717   93.6344    0.7572 C.3     1  UNL1        0.2101
     13 C          59.6021   94.9638    0.5715 C.3     1  UNL1        0.0767
     14 C          58.7636   95.2176   -0.6460 C.3     1  UNL1        0.0773
     15 C          57.7563   94.3961   -2.8955 C.3     1  UNL1        0.0721
     16 C          57.4735   92.5293   -4.6803 C.3     1  UNL1        0.0014
     17 C          58.1415   93.7880   -4.2115 C.3     1  UNL1        0.0160
     18 C          59.1945   94.4385   -5.0587 C.3     1  UNL1        0.0014
     19 C          58.9899   89.9462    6.4144 C.3     1  UNL1        0.1167
     20 N          59.8742   89.5851    7.5710 N.am    1  UNL1       -0.2944
     21 C          59.7433   88.2412    8.2242 C.2     1  UNL1        0.2808
     22 O          58.7282   87.2584    7.7208 O.2     1  UNL1       -0.2668
     23 H          60.5405   90.2302    7.9014 H       1  UNL1        0.1501
     24 C          60.6276   87.8801    9.3807 C.ar    1  UNL1        0.1984
     25 C          61.4888   88.8279   10.1617 C.ar    1  UNL1        0.0453
     26 C          62.1994   88.0413   11.2230 C.ar    1  UNL1        0.0409
     27 C          63.1762   88.4456   12.2871 C.ar    1  UNL1        0.0238
     28 C          63.7310   87.4159   13.2262 C.ar    1  UNL1        0.0991
     29 N          63.3090   85.9819   13.1011 N.ar    1  UNL1       -0.2391
     30 C          62.3322   85.5776   12.0370 C.ar    1  UNL1        0.1362
     31 C          61.7774   86.6074   11.0980 C.ar    1  UNL1        0.1646
     32 O          60.8060   86.5077    9.9594 O.2     1  UNL1       -0.4473
@<TRIPOS>UNITY_ATOM_ATTR
7 1
charge 1
8 1
charge -1
@<TRIPOS>BOND
     1    16    17    1
     2    17    18    1
     3    17    15    1
     4    15     9    1
     5     9    10    1
     6    10    11    1
     7    11    12    1
     8    12     7    1
     9     7     8    2
    10     7     1    1
    11     1     2   ar
    12     2     3   ar
    13     3     4   ar
    14     4    19    1
    15    19    20    1
    16    20    21   am
    17    21    22    2
    18    21    24    1
    19    24    25   ar
    20    25    26   ar
    21    26    27   ar
    22    27    28   ar
    23    28    29   ar
    24    29    30   ar
    25    30    31   ar
    26    31    32   ar
    27     4     5   ar
    28     5     6   ar
    29    12    13    1
    30    13    14    1
    31    14     9    1
    32     6     1   ar
    33    32    24   ar
    34    31    26   ar
    35    20    23    1
@<TRIPOS>MOLECULE
*****
 32 35 0 0 0
SMALL
GASTEIGER

@<TRIPOS>ATOM
      1 C          60.1499   92.9094    3.3886 C.ar    1  UNL1        0.1803
      2 C          58.7307   92.7162    3.8344 C.ar    1  UNL1        0.0516
      3 C          58.3847   91.5973    4.7715 C.ar    1  UNL1        0.0019
      4 C          59.4577   90.6715    5.2629 C.ar    1  UNL1       -0.0023
      5 C          60.8769   90.8647    4.8172 C.ar    1  UNL1        0.0019
      6 C          61.2230   91.9836    3.8800 C.ar    1  UNL1        0.0516
      7 S          60.4960   94.0283    2.4515 S.O     1  UNL1        0.0474
      8 O          60.0713   95.4313    2.7694 O.co2   1  UNL1       -0.6776
      9 N          62.8083   93.1758   -1.3137 N.3     1  UNL1       -0.2723
     10 C          61.3120   93.0705   -1.3124 C.3     1  UNL1        0.0773
     11 C          60.5412   93.3546   -0.0573 C.3     1  UNL1        0.0767
     12 C          61.2667   93.7441    1.1964 C.3     1  UNL1        0.2101
     13 C          62.7631   93.8495    1.1951 C.3     1  UNL1        0.0767
     14 C          63.5338   93.5653   -0.0599 C.3     1  UNL1        0.0773
     15 C          63.5790   92.8917   -2.5687 C.3     1  UNL1        0.0721
     16 C          64.3371   95.3219   -3.0878 C.3     1  UNL1        0.0014
     17 C          63.8321   93.9901   -3.5584 C.3     1  UNL1        0.0160
     18 C          63.5802   93.7568   -5.0185 C.3     1  UNL1        0.0014
     19 C          59.1116   89.5525    6.2001 C.3     1  UNL1        0.1167
     20 N          60.0002   89.2528    7.3708 N.am    1  UNL1       -0.2944
     21 C          59.7848   88.0057    8.1759 C.2     1  UNL1        0.2808
     22 O          58.6808   87.0583    7.8103 O.2     1  UNL1       -0.2668
     23 H          60.7248   89.8746    7.6107 H       1  UNL1        0.1501
     24 C          60.6734   87.7059    9.3466 C.ar    1  UNL1        0.1984
     25 C          60.9825   86.3436    9.8928 C.ar    1  UNL1        0.0453
     26 C          61.9091   86.5115   11.0604 C.ar    1  UNL1        0.0409
     27 C          62.5468   85.5188   11.9866 C.ar    1  UNL1        0.0238
     28 C          63.4481   85.9924   13.0881 C.ar    1  UNL1        0.0991
     29 N          63.7116   87.4586   13.2635 N.ar    1  UNL1       -0.2391
     30 C          63.0738   88.4513   12.3374 C.ar    1  UNL1        0.1362
     31 C          62.1725   87.9778   11.2359 C.ar    1  UNL1        0.1646
     32 O          61.4089   88.7159   10.1767 O.2     1  UNL1       -0.4473
@<TRIPOS>UNITY_ATOM_ATTR
7 1
charge 1
8 1
charge -1
@<TRIPOS>BOND
     1    16    17    1
     2    17    18    1
     3    17    15    1
     4    15     9    1
     5     9    10    1
     6    10    11    1
     7    11    12    1
     8    12     7    1
     9     7     8    2
    10     7     1    1
    11     1     2   ar
    12     2     3   ar
    13     3     4   ar
    14     4    19    1
    15    19    20    1
    16    20    21   am
    17    21    22    2
    18    21    24    1
    19    24    25   ar
    20    25    26   ar
    21    26    27   ar
    22    27    28   ar
    23    28    29   ar
    24    29    30   ar
    25    30    31   ar
    26    31    32   ar
    27     4     5   ar
    28     5     6   ar
    29    12    13    1
    30    13    14    1
    31    14     9    1
    32     6     1   ar
    33    32    24   ar
    34    31    26   ar
    35    20    23    1
@<TRIPOS>MOLECULE
*****
 32 35 0 0 0
SMALL
GASTEIGER

@<TRIPOS>ATOM
      1 C          59.4120   89.7920    6.4374 C.ar    1  UNL1        0.1803
      2 C          60.7374   90.1619    5.8401 C.ar    1  UNL1        0.0516
      3 C          60.8119   91.2137    4.7733 C.ar    1  UNL1        0.0019
      4 C          59.5612   91.8957    4.3038 C.ar    1  UNL1       -0.0023
      5 C          58.2359   91.5259    4.9011 C.ar    1  UNL1        0.0019
      6 C          58.1613   90.4740    5.9679 C.ar    1  UNL1        0.0516
      7 S          59.3375   88.7402    7.5042 S.O     1  UNL1        0.0474
      8 O          58.3520   87.6161    7.3816 O.co2   1  UNL1       -0.6776
      9 N          62.0705   88.9572   11.0726 N.3     1  UNL1       -0.2723
     10 C          61.0966   90.0662   10.8053 C.3     1  UNL1        0.0773
     11 C          60.1856   89.9939    9.6159 C.3     1  UNL1        0.0767
     12 C          60.2485   88.8125    8.6937 C.3     1  UNL1        0.2101
     13 C          61.2225   87.7035    8.9610 C.3     1  UNL1        0.0767
     14 C          62.1335   87.7758   10.1504 C.3     1  UNL1        0.0773
     15 C          62.9815   89.0295   12.2621 C.3     1  UNL1        0.0721
     16 C          63.7077   90.6934   14.1206 C.3     1  UNL1        0.0014
     17 C          63.5828   90.3426   12.6675 C.3     1  UNL1        0.0160
     18 C          64.0591   91.3048   11.6200 C.3     1  UNL1        0.0014
     19 C          59.6357   92.9475    3.2369 C.3     1  UNL1        0.1167
     20 N          58.9578   92.7266    1.9172 N.am    1  UNL1       -0.2944
     21 C          59.5381   93.3192    0.6674 C.2     1  UNL1        0.2808
     22 O          60.7963   94.1328    0.7373 O.2     1  UNL1       -0.2668
     23 H          58.1319   92.1927    1.8714 H       1  UNL1        0.1501
     24 C          58.8601   93.0983   -0.6522 C.ar    1  UNL1        0.1984
     25 C          59.3352   93.6022   -1.9828 C.ar    1  UNL1        0.0453
     26 C          58.3567   93.1500   -3.0260 C.ar    1  UNL1        0.0409
     27 C          58.3095   93.3504   -4.5118 C.ar    1  UNL1        0.0238
     28 C          57.1825   92.7674   -5.3117 C.ar    1  UNL1        0.0991
     29 N          56.1026   91.9842   -4.6258 N.ar    1  UNL1       -0.2391
     30 C          56.1498   91.7838   -3.1400 C.ar    1  UNL1        0.1362
     31 C          57.2769   92.3668   -2.3401 C.ar    1  UNL1        0.1646
     32 O          57.5880   92.3348   -0.8731 O.2     1  UNL1       -0.4473
@<TRIPOS>UNITY_ATOM_ATTR
7 1
charge 1
8 1
charge -1
@<TRIPOS>BOND
     1    16    17    1
     2    17    18    1
     3    17    15    1
     4    15     9    1
     5     9    10    1
     6    10    11    1
     7    11    12    1
     8    12     7    1
     9     7     8    2
    10     7     1    1
    11     1     2   ar
    12     2     3   ar
    13     3     4   ar
    14     4    19    1
    15    19    20    1
    16    20    21   am
    17    21    22    2
    18    21    24    1
    19    24    25   ar
    20    25    26   ar
    21    26    27   ar
    22    27    28   ar
    23    28    29   ar
    24    29    30   ar
    25    30    31   ar
    26    31    32   ar
    27     4     5   ar
    28     5     6   ar
    29    12    13    1
    30    13    14    1
    31    14     9    1
    32     6     1   ar
    33    32    24   ar
    34    31    26   ar
    35    20    23    1
