@<TRIPOS>MOLECULE
*****
 26 28 0 0 0
SMALL
GASTEIGER

@<TRIPOS>ATOM
      1 C          66.0670   93.0560   13.0279 C.ar    1  UNL1        0.1724
      2 C          65.4421   91.8073   13.5758 C.ar    1  UNL1        0.0400
      3 C          64.5103   90.9984   12.7227 C.ar    1  UNL1        0.0032
      4 C          63.8854   89.7497   13.2706 C.ar    1  UNL1       -0.0001
      5 C          62.9537   88.9409   12.4176 C.ar    1  UNL1       -0.0017
      6 C          62.6469   89.3808   11.0167 C.ar    1  UNL1        0.0070
      7 C          63.2718   90.6294   10.4689 C.ar    1  UNL1       -0.0016
      8 C          64.2035   91.4383   11.3219 C.ar    1  UNL1        0.0030
      9 C          64.8285   92.6870   10.7741 C.ar    1  UNL1        0.0400
     10 C          65.7602   93.4959   11.6271 C.ar    1  UNL1        0.1724
     11 C          61.7151   88.5719   10.1637 C.3     1  UNL1        0.1410
     12 O          62.8747   88.1176    9.3277 O.3     1  UNL1       -0.3771
     13 H          63.6927   88.5128    9.6675 H       1  UNL1        0.2112
     14 C          60.5555   89.0261   10.9997 C.ar    1  UNL1        0.0810
     15 C          59.9628   90.4040   11.0110 C.ar    1  UNL1        0.0391
     16 C          58.8259   90.4117   11.9896 C.ar    1  UNL1        0.1212
     17 N          58.7160   89.0385   12.5831 N.ar    1  UNL1       -0.1713
     18 N          59.7849   88.1822   11.9714 N.ar    1  UNL1       -0.2772
     19 H          59.9514   87.2329   12.1723 H       1  UNL1        0.1887
     20 C          60.7833   87.7630    9.3108 C.3     1  UNL1        0.0340
     21 C          60.7952   86.2657    9.3988 C.3     1  UNL1        0.0031
     22 C          59.8396   88.4516    8.3698 C.3     1  UNL1        0.0031
     23 C          67.4560   93.3315   15.2062 C.3     1  UNL1        0.2526
     24 O          66.9988   93.8649   13.8809 O.3     1  UNL1       -0.4684
     25 O          66.3852   94.7446   11.0792 O.3     1  UNL1       -0.4684
     26 C          67.1426   94.6988    9.7853 C.3     1  UNL1        0.2526
@<TRIPOS>BOND
     1    23    24    1
     2    24     1    1
     3     1     2   ar
     4     2     3   ar
     5     3     4   ar
     6     4     5   ar
     7     5     6   ar
     8     6    11    1
     9    11    12    1
    10    11    14    1
    11    14    15   ar
    12    15    16   ar
    13    16    17   ar
    14    17    18   ar
    15    11    20    1
    16    20    21    1
    17    20    22    1
    18     6     7   ar
    19     7     8   ar
    20     8     9   ar
    21     9    10   ar
    22    10    25    1
    23    25    26    1
    24    10     1   ar
    25     8     3   ar
    26    18    14   ar
    27    12    13    1
    28    18    19    1
@<TRIPOS>MOLECULE
*****
 26 28 0 0 0
SMALL
GASTEIGER

@<TRIPOS>ATOM
      1 C          63.8875   89.6670   13.0843 C.ar    1  UNL1        0.1724
      2 C          64.3433   88.7558   14.1851 C.ar    1  UNL1        0.0400
      3 C          63.9971   87.2968   14.1428 C.ar    1  UNL1        0.0032
      4 C          64.4529   86.3856   15.2436 C.ar    1  UNL1       -0.0001
      5 C          64.1068   84.9268   15.2013 C.ar    1  UNL1       -0.0017
      6 C          63.3048   84.3791   14.0581 C.ar    1  UNL1        0.0070
      7 C          62.8489   85.2903   12.9573 C.ar    1  UNL1       -0.0016
      8 C          63.1951   86.7492   12.9996 C.ar    1  UNL1        0.0030
      9 C          62.7393   87.6605   11.8987 C.ar    1  UNL1        0.0400
     10 C          63.0855   89.1193   11.9411 C.ar    1  UNL1        0.1724
     11 C          62.9586   82.9202   14.0158 C.3     1  UNL1        0.1410
     12 O          62.4274   83.0055   15.4160 O.3     1  UNL1       -0.3771
     13 H          62.5240   83.9134   15.7436 H       1  UNL1        0.2112
     14 C          63.4897   82.8348   12.6156 C.ar    1  UNL1        0.0810
     15 C          62.6998   82.4703   11.3936 C.ar    1  UNL1        0.0391
     16 C          63.6260   82.5091   10.2143 C.ar    1  UNL1        0.1212
     17 N          64.9883   82.8977   10.7074 N.ar    1  UNL1       -0.1713
     18 N          64.9041   83.0990   12.1915 N.ar    1  UNL1       -0.2772
     19 H          65.6468   83.3588   12.7832 H       1  UNL1        0.1887
     20 C          62.6124   81.4613   13.9734 C.3     1  UNL1        0.0340
     21 C          63.6969   80.4375   13.8132 C.3     1  UNL1        0.0031
     22 C          61.1817   81.0262   14.0913 C.3     1  UNL1        0.0031
     23 C          65.5171   91.5741   13.7603 C.3     1  UNL1        0.2526
     24 O          64.2336   91.1259   13.1266 O.3     1  UNL1       -0.4684
     25 O          62.6297   90.0306   10.8402 O.3     1  UNL1       -0.4684
     26 C          61.3473   89.7479   10.1152 C.3     1  UNL1        0.2526
@<TRIPOS>BOND
     1    23    24    1
     2    24     1    1
     3     1     2   ar
     4     2     3   ar
     5     3     4   ar
     6     4     5   ar
     7     5     6   ar
     8     6    11    1
     9    11    12    1
    10    11    14    1
    11    14    15   ar
    12    15    16   ar
    13    16    17   ar
    14    17    18   ar
    15    11    20    1
    16    20    21    1
    17    20    22    1
    18     6     7   ar
    19     7     8   ar
    20     8     9   ar
    21     9    10   ar
    22    10    25    1
    23    25    26    1
    24    10     1   ar
    25     8     3   ar
    26    18    14   ar
    27    12    13    1
    28    18    19    1
@<TRIPOS>MOLECULE
*****
 26 28 0 0 0
SMALL
GASTEIGER

@<TRIPOS>ATOM
      1 C          63.8159   90.1523   12.7805 C.ar    1  UNL1        0.1724
      2 C          63.1071   89.1557   11.9120 C.ar    1  UNL1        0.0400
      3 C          63.0305   87.7171   12.3299 C.ar    1  UNL1        0.0032
      4 C          62.3217   86.7205   11.4614 C.ar    1  UNL1       -0.0001
      5 C          62.2451   85.2820   11.8794 C.ar    1  UNL1       -0.0017
      6 C          62.8774   84.8401   13.1659 C.ar    1  UNL1        0.0070
      7 C          63.5862   85.8367   14.0344 C.ar    1  UNL1       -0.0016
      8 C          63.6627   87.2752   13.6164 C.ar    1  UNL1        0.0030
      9 C          64.3716   88.2719   14.4849 C.ar    1  UNL1        0.0400
     10 C          64.4481   89.7104   14.0670 C.ar    1  UNL1        0.1724
     11 C          62.8008   83.4015   13.5839 C.3     1  UNL1        0.1410
     12 O          62.2021   83.8144   14.8957 O.3     1  UNL1       -0.3771
     13 H          62.1198   84.7805   14.9237 H       1  UNL1        0.2112
     14 C          63.3994   82.9885   12.2720 C.ar    1  UNL1        0.0810
     15 C          62.7519   82.1061   11.2462 C.ar    1  UNL1        0.0391
     16 C          63.7030   81.9577   10.0957 C.ar    1  UNL1        0.1212
     17 N          64.9383   82.7483   10.4105 N.ar    1  UNL1       -0.1713
     18 N          64.7507   83.3854   11.7555 N.ar    1  UNL1       -0.2772
     19 H          65.4003   83.9627   12.2181 H       1  UNL1        0.1887
     20 C          62.7242   81.9629   14.0017 C.3     1  UNL1        0.0340
     21 C          63.9806   81.1571   14.1502 C.3     1  UNL1        0.0031
     22 C          61.3911   81.3301   14.2712 C.3     1  UNL1        0.0031
     23 C          64.6009   91.9670   11.0950 C.3     1  UNL1        0.2526
     24 O          63.8925   91.5910   12.3625 O.3     1  UNL1       -0.4684
     25 O          65.1570   90.7071   14.9355 O.3     1  UNL1       -0.4684
     26 C          66.4685   91.2868   14.4952 C.3     1  UNL1        0.2526
@<TRIPOS>BOND
     1    23    24    1
     2    24     1    1
     3     1     2   ar
     4     2     3   ar
     5     3     4   ar
     6     4     5   ar
     7     5     6   ar
     8     6    11    1
     9    11    12    1
    10    11    14    1
    11    14    15   ar
    12    15    16   ar
    13    16    17   ar
    14    17    18   ar
    15    11    20    1
    16    20    21    1
    17    20    22    1
    18     6     7   ar
    19     7     8   ar
    20     8     9   ar
    21     9    10   ar
    22    10    25    1
    23    25    26    1
    24    10     1   ar
    25     8     3   ar
    26    18    14   ar
    27    12    13    1
    28    18    19    1
@<TRIPOS>MOLECULE
*****
 26 28 0 0 0
SMALL
GASTEIGER

@<TRIPOS>ATOM
      1 C          63.1870   81.9129   11.2322 C.ar    1  UNL1        0.1724
      2 C          63.2774   82.8015   10.0272 C.ar    1  UNL1        0.0400
      3 C          62.9323   84.2569   10.1409 C.ar    1  UNL1        0.0032
      4 C          63.0227   85.1455    8.9359 C.ar    1  UNL1       -0.0001
      5 C          62.6776   86.6008    9.0496 C.ar    1  UNL1       -0.0017
      6 C          62.2419   87.1674   10.3684 C.ar    1  UNL1        0.0070
      7 C          62.1515   86.2788   11.5734 C.ar    1  UNL1       -0.0016
      8 C          62.4966   84.8235   11.4596 C.ar    1  UNL1        0.0030
      9 C          62.4062   83.9348   12.6647 C.ar    1  UNL1        0.0400
     10 C          62.7513   82.4795   12.5509 C.ar    1  UNL1        0.1724
     11 C          61.8968   88.6228   10.4821 C.3     1  UNL1        0.1410
     12 O          62.9496   88.7901   11.5374 O.3     1  UNL1       -0.3771
     13 H          63.3870   87.9389   11.6955 H       1  UNL1        0.2112
     14 C          60.8440   88.4555    9.4269 C.ar    1  UNL1        0.0810
     15 C          59.8689   87.3201    9.3264 C.ar    1  UNL1        0.0391
     16 C          59.0037   87.5571    8.1241 C.ar    1  UNL1        0.1212
     17 N          59.4440   88.8391    7.4817 N.ar    1  UNL1       -0.1713
     18 N          60.5813   89.3943    8.2868 N.ar    1  UNL1       -0.2772
     19 H          61.0697   90.2285    8.0998 H       1  UNL1        0.1887
     20 C          61.5516   90.0781   10.5958 C.3     1  UNL1        0.0340
     21 C          60.1858   90.4910   11.0586 C.3     1  UNL1        0.0031
     22 C          62.5722   91.1205   10.2467 C.3     1  UNL1        0.0031
     23 C          62.9586   79.6357   10.0024 C.3     1  UNL1        0.2526
     24 O          63.5321   80.4575   11.1184 O.3     1  UNL1       -0.4684
     25 O          62.6609   81.5908   13.7560 O.3     1  UNL1       -0.4684
     26 C          61.3419   80.9964   14.1522 C.3     1  UNL1        0.2526
@<TRIPOS>BOND
     1    23    24    1
     2    24     1    1
     3     1     2   ar
     4     2     3   ar
     5     3     4   ar
     6     4     5   ar
     7     5     6   ar
     8     6    11    1
     9    11    12    1
    10    11    14    1
    11    14    15   ar
    12    15    16   ar
    13    16    17   ar
    14    17    18   ar
    15    11    20    1
    16    20    21    1
    17    20    22    1
    18     6     7   ar
    19     7     8   ar
    20     8     9   ar
    21     9    10   ar
    22    10    25    1
    23    25    26    1
    24    10     1   ar
    25     8     3   ar
    26    18    14   ar
    27    12    13    1
    28    18    19    1
@<TRIPOS>MOLECULE
*****
 26 28 0 0 0
SMALL
GASTEIGER

@<TRIPOS>ATOM
      1 C          61.2284   88.0698    9.9218 C.ar    1  UNL1        0.1724
      2 C          61.7096   89.4470    9.5728 C.ar    1  UNL1        0.0400
      3 C          62.6992   90.1429   10.4597 C.ar    1  UNL1        0.0032
      4 C          63.1804   91.5201   10.1107 C.ar    1  UNL1       -0.0001
      5 C          64.1700   92.2158   10.9975 C.ar    1  UNL1       -0.0017
      6 C          64.6785   91.5344   12.2333 C.ar    1  UNL1        0.0070
      7 C          64.1974   90.1572   12.5822 C.ar    1  UNL1       -0.0016
      8 C          63.2077   89.4615   11.6954 C.ar    1  UNL1        0.0030
      9 C          62.7265   88.0842   12.0444 C.ar    1  UNL1        0.0400
     10 C          61.7369   87.3884   11.1576 C.ar    1  UNL1        0.1724
     11 C          65.6682   92.2303   13.1201 C.3     1  UNL1        0.1410
     12 O          64.8767   91.8192   14.3261 O.3     1  UNL1       -0.3771
     13 H          64.1026   91.3064   14.0454 H       1  UNL1        0.2112
     14 C          66.4598   92.6413   11.9141 C.ar    1  UNL1        0.0810
     15 C          66.1262   93.7690   10.9830 C.ar    1  UNL1        0.0391
     16 C          67.1842   93.8215    9.9208 C.ar    1  UNL1        0.1212
     17 N          68.1716   92.7262   10.1956 N.ar    1  UNL1       -0.1713
     18 N          67.7239   91.9968   11.4275 N.ar    1  UNL1       -0.2772
     19 H          68.1797   91.2298   11.8436 H       1  UNL1        0.1887
     20 C          66.6579   92.9261   14.0069 C.3     1  UNL1        0.0340
     21 C          67.5730   92.1238   14.8837 C.3     1  UNL1        0.0031
     22 C          66.7324   94.4243   14.0167 C.3     1  UNL1        0.0031
     23 C          60.6876   86.2534    8.1446 C.3     1  UNL1        0.2526
     24 O          60.2387   87.3740    9.0350 O.3     1  UNL1       -0.4684
     25 O          61.2557   86.0112   11.5065 O.3     1  UNL1       -0.4684
     26 C          62.2268   84.8693   11.5629 C.3     1  UNL1        0.2526
@<TRIPOS>BOND
     1    23    24    1
     2    24     1    1
     3     1     2   ar
     4     2     3   ar
     5     3     4   ar
     6     4     5   ar
     7     5     6   ar
     8     6    11    1
     9    11    12    1
    10    11    14    1
    11    14    15   ar
    12    15    16   ar
    13    16    17   ar
    14    17    18   ar
    15    11    20    1
    16    20    21    1
    17    20    22    1
    18     6     7   ar
    19     7     8   ar
    20     8     9   ar
    21     9    10   ar
    22    10    25    1
    23    25    26    1
    24    10     1   ar
    25     8     3   ar
    26    18    14   ar
    27    12    13    1
    28    18    19    1
@<TRIPOS>MOLECULE
*****
 26 28 0 0 0
SMALL
GASTEIGER

@<TRIPOS>ATOM
      1 C          63.1050   90.2634   11.3795 C.ar    1  UNL1        0.1724
      2 C          62.4993   89.1117   10.6333 C.ar    1  UNL1        0.0400
      3 C          62.5573   87.7291   11.2123 C.ar    1  UNL1        0.0032
      4 C          61.9516   86.5775   10.4661 C.ar    1  UNL1       -0.0001
      5 C          62.0096   85.1950   11.0451 C.ar    1  UNL1       -0.0017
      6 C          62.6733   84.9642   12.3703 C.ar    1  UNL1        0.0070
      7 C          63.2790   86.1158   13.1165 C.ar    1  UNL1       -0.0016
      8 C          63.2210   87.4983   12.5375 C.ar    1  UNL1        0.0030
      9 C          63.8267   88.6500   13.2837 C.ar    1  UNL1        0.0400
     10 C          63.7687   90.0325   12.7047 C.ar    1  UNL1        0.1724
     11 C          62.7314   83.5816   12.9493 C.3     1  UNL1        0.1410
     12 O          62.6875   83.0008   11.5670 O.3     1  UNL1       -0.3771
     13 H          62.6427   83.7185   10.9160 H       1  UNL1        0.2112
     14 C          62.7752   84.1623   14.3316 C.ar    1  UNL1        0.0810
     15 C          63.9906   84.2716   15.2039 C.ar    1  UNL1        0.0391
     16 C          63.5779   84.9126   16.4958 C.ar    1  UNL1        0.1212
     17 N          62.1074   85.1996   16.4218 N.ar    1  UNL1       -0.1713
     18 N          61.6113   84.7359   15.0843 N.ar    1  UNL1       -0.2772
     19 H          60.6846   84.7972   14.7578 H       1  UNL1        0.1887
     20 C          62.7894   82.1991   13.5283 C.3     1  UNL1        0.0340
     21 C          61.5897   81.6258   14.2226 C.3     1  UNL1        0.0031
     22 C          64.0471   81.3898   13.4130 C.3     1  UNL1        0.0031
     23 C          64.3144   92.3584   10.4318 C.3     1  UNL1        0.2526
     24 O          63.0470   91.6459   10.8005 O.3     1  UNL1       -0.4684
     25 O          64.3744   91.1842   13.4509 O.3     1  UNL1       -0.4684
     26 C          65.1844   90.9333   14.6882 C.3     1  UNL1        0.2526
@<TRIPOS>BOND
     1    23    24    1
     2    24     1    1
     3     1     2   ar
     4     2     3   ar
     5     3     4   ar
     6     4     5   ar
     7     5     6   ar
     8     6    11    1
     9    11    12    1
    10    11    14    1
    11    14    15   ar
    12    15    16   ar
    13    16    17   ar
    14    17    18   ar
    15    11    20    1
    16    20    21    1
    17    20    22    1
    18     6     7   ar
    19     7     8   ar
    20     8     9   ar
    21     9    10   ar
    22    10    25    1
    23    25    26    1
    24    10     1   ar
    25     8     3   ar
    26    18    14   ar
    27    12    13    1
    28    18    19    1
@<TRIPOS>MOLECULE
*****
 26 28 0 0 0
SMALL
GASTEIGER

@<TRIPOS>ATOM
      1 C          63.7898   82.6735   12.5811 C.ar    1  UNL1        0.1724
      2 C          63.8266   83.0480   11.1291 C.ar    1  UNL1        0.0400
      3 C          63.0919   84.2647   10.6494 C.ar    1  UNL1        0.0032
      4 C          63.1288   84.6392    9.1974 C.ar    1  UNL1       -0.0001
      5 C          62.3941   85.8558    8.7178 C.ar    1  UNL1       -0.0017
      6 C          61.6226   86.6980    9.6903 C.ar    1  UNL1        0.0070
      7 C          61.5858   86.3235   11.1423 C.ar    1  UNL1       -0.0016
      8 C          62.3204   85.1068   11.6218 C.ar    1  UNL1        0.0030
      9 C          62.2836   84.7323   13.0739 C.ar    1  UNL1        0.0400
     10 C          63.0183   83.5156   13.5535 C.ar    1  UNL1        0.1724
     11 C          60.8879   87.9146    9.2106 C.3     1  UNL1        0.1410
     12 O          60.2758   87.1086    8.1036 O.3     1  UNL1       -0.3771
     13 H          60.5917   86.1931    8.1573 H       1  UNL1        0.2112
     14 C          61.5000   88.7206   10.3177 C.ar    1  UNL1        0.0810
     15 C          62.7330   89.5686   10.2132 C.ar    1  UNL1        0.0391
     16 C          62.9817   90.1922   11.5547 C.ar    1  UNL1        0.1212
     17 N          61.9024   89.7297   12.4881 N.ar    1  UNL1       -0.1713
     18 N          60.9867   88.8203   11.7237 N.ar    1  UNL1       -0.2772
     19 H          60.1889   88.3681   12.0818 H       1  UNL1        0.1887
     20 C          60.1533   89.1313    8.7311 C.3     1  UNL1        0.0340
     21 C          59.7564   89.2480    7.2892 C.3     1  UNL1        0.0031
     22 C          59.8155   90.2313    9.6933 C.3     1  UNL1        0.0031
     23 C          63.7785   80.3540   13.7514 C.3     1  UNL1        0.2526
     24 O          64.5245   81.4568   13.0607 O.3     1  UNL1       -0.4684
     25 O          62.9815   83.1411   15.0056 O.3     1  UNL1       -0.4684
     26 C          62.5834   84.1590   16.0328 C.3     1  UNL1        0.2526
@<TRIPOS>BOND
     1    23    24    1
     2    24     1    1
     3     1     2   ar
     4     2     3   ar
     5     3     4   ar
     6     4     5   ar
     7     5     6   ar
     8     6    11    1
     9    11    12    1
    10    11    14    1
    11    14    15   ar
    12    15    16   ar
    13    16    17   ar
    14    17    18   ar
    15    11    20    1
    16    20    21    1
    17    20    22    1
    18     6     7   ar
    19     7     8   ar
    20     8     9   ar
    21     9    10   ar
    22    10    25    1
    23    25    26    1
    24    10     1   ar
    25     8     3   ar
    26    18    14   ar
    27    12    13    1
    28    18    19    1
@<TRIPOS>MOLECULE
*****
 26 28 0 0 0
SMALL
GASTEIGER

@<TRIPOS>ATOM
      1 C          61.0258   88.2361    9.3083 C.ar    1  UNL1        0.1724
      2 C          61.9000   87.1247    8.8078 C.ar    1  UNL1        0.0400
      3 C          62.2219   85.9634    9.7010 C.ar    1  UNL1        0.0032
      4 C          63.0961   84.8520    9.2005 C.ar    1  UNL1       -0.0001
      5 C          63.4179   83.6908   10.0937 C.ar    1  UNL1       -0.0017
      6 C          62.8656   83.6409   11.4874 C.ar    1  UNL1        0.0070
      7 C          61.9914   84.7523   11.9879 C.ar    1  UNL1       -0.0016
      8 C          61.6695   85.9135   11.0947 C.ar    1  UNL1        0.0030
      9 C          60.7953   87.0250   11.5952 C.ar    1  UNL1        0.0400
     10 C          60.4734   88.1862   10.7020 C.ar    1  UNL1        0.1724
     11 C          63.1875   82.4795   12.3806 C.3     1  UNL1        0.1410
     12 O          63.0056   81.5404   11.2252 O.3     1  UNL1       -0.3771
     13 H          62.7701   82.0460   10.4316 H       1  UNL1        0.2112
     14 C          63.3694   83.4187   13.5359 C.ar    1  UNL1        0.0810
     15 C          64.4809   84.4130   13.6974 C.ar    1  UNL1        0.0391
     16 C          64.2702   85.1372   14.9941 C.ar    1  UNL1        0.1212
     17 N          63.0285   84.5905   15.6339 N.ar    1  UNL1       -0.1713
     18 N          62.4719   83.5284   14.7328 N.ar    1  UNL1       -0.2772
     19 H          61.6599   82.9966   14.8979 H       1  UNL1        0.1887
     20 C          63.5094   81.3183   13.2738 C.3     1  UNL1        0.0340
     21 C          64.8800   81.1872   13.8689 C.3     1  UNL1        0.0031
     22 C          62.4606   80.2881   13.5719 C.3     1  UNL1        0.0031
     23 C          59.6160   89.2759    7.3895 C.3     1  UNL1        0.2526
     24 O          60.7039   89.3974    8.4151 O.3     1  UNL1       -0.4684
     25 O          59.5992   89.2977   11.2025 O.3     1  UNL1       -0.4684
     26 C          58.9046   89.1677   12.5256 C.3     1  UNL1        0.2526
@<TRIPOS>BOND
     1    23    24    1
     2    24     1    1
     3     1     2   ar
     4     2     3   ar
     5     3     4   ar
     6     4     5   ar
     7     5     6   ar
     8     6    11    1
     9    11    12    1
    10    11    14    1
    11    14    15   ar
    12    15    16   ar
    13    16    17   ar
    14    17    18   ar
    15    11    20    1
    16    20    21    1
    17    20    22    1
    18     6     7   ar
    19     7     8   ar
    20     8     9   ar
    21     9    10   ar
    22    10    25    1
    23    25    26    1
    24    10     1   ar
    25     8     3   ar
    26    18    14   ar
    27    12    13    1
    28    18    19    1
@<TRIPOS>MOLECULE
*****
 26 28 0 0 0
SMALL
GASTEIGER

@<TRIPOS>ATOM
      1 C          61.4750   85.2621    7.1679 C.ar    1  UNL1        0.1724
      2 C          62.5779   84.4890    7.8282 C.ar    1  UNL1        0.0400
      3 C          62.7761   84.5839    9.3120 C.ar    1  UNL1        0.0032
      4 C          63.8790   83.8107    9.9723 C.ar    1  UNL1       -0.0001
      5 C          64.0772   83.9057   11.4561 C.ar    1  UNL1       -0.0017
      6 C          63.1726   84.7737   12.2796 C.ar    1  UNL1        0.0070
      7 C          62.0697   85.5468   11.6193 C.ar    1  UNL1       -0.0016
      8 C          61.8715   85.4519   10.1355 C.ar    1  UNL1        0.0030
      9 C          60.7686   86.2251    9.4752 C.ar    1  UNL1        0.0400
     10 C          60.5704   86.1301    7.9914 C.ar    1  UNL1        0.1724
     11 C          63.3708   84.8686   13.7634 C.3     1  UNL1        0.1410
     12 O          63.5680   86.3506   13.6424 O.3     1  UNL1       -0.3771
     13 H          63.4897   86.6122   12.7116 H       1  UNL1        0.2112
     14 C          63.1736   83.3866   13.8845 C.ar    1  UNL1        0.0810
     15 C          61.9397   82.6267   13.4970 C.ar    1  UNL1        0.0391
     16 C          62.1792   81.1746   13.7874 C.ar    1  UNL1        0.1212
     17 N          63.5611   81.0371   14.3544 N.ar    1  UNL1       -0.1713
     18 N          64.1757   82.4041   14.4144 N.ar    1  UNL1       -0.2772
     19 H          65.0782   82.6188   14.7438 H       1  UNL1        0.1887
     20 C          63.5691   84.9634   15.2472 C.3     1  UNL1        0.0340
     21 C          64.9036   85.3658   15.8014 C.3     1  UNL1        0.0031
     22 C          62.4327   84.6560   16.1769 C.3     1  UNL1        0.0031
     23 C          61.9650   84.0873    4.9030 C.3     1  UNL1        0.2526
     24 O          61.2768   85.1672    5.6840 O.3     1  UNL1       -0.4684
     25 O          59.4675   86.9033    7.3311 O.3     1  UNL1       -0.4684
     26 C          59.3564   88.3836    7.5462 C.3     1  UNL1        0.2526
@<TRIPOS>BOND
     1    23    24    1
     2    24     1    1
     3     1     2   ar
     4     2     3   ar
     5     3     4   ar
     6     4     5   ar
     7     5     6   ar
     8     6    11    1
     9    11    12    1
    10    11    14    1
    11    14    15   ar
    12    15    16   ar
    13    16    17   ar
    14    17    18   ar
    15    11    20    1
    16    20    21    1
    17    20    22    1
    18     6     7   ar
    19     7     8   ar
    20     8     9   ar
    21     9    10   ar
    22    10    25    1
    23    25    26    1
    24    10     1   ar
    25     8     3   ar
    26    18    14   ar
    27    12    13    1
    28    18    19    1
