@<TRIPOS>MOLECULE
*****
 17 18 0 0 0
SMALL
GASTEIGER

@<TRIPOS>ATOM
      1 C          63.6757   83.7849   10.7479 C.ar    1  UNL1        0.1386
      2 C          63.7552   84.0977    9.2830 C.ar    1  UNL1        0.0370
      3 C          62.8690   85.1541    8.6925 C.ar    1  UNL1        0.0061
      4 C          61.9033   85.8977    9.5669 C.ar    1  UNL1        0.0341
      5 C          61.8239   85.5849   11.0317 C.ar    1  UNL1        0.0061
      6 C          62.7101   84.5286   11.6222 C.ar    1  UNL1        0.0370
      7 C          61.0171   86.9541    8.9764 C.ar    1  UNL1        0.1406
      8 N          59.9539   86.7354    7.9412 N.ar    1  UNL1       -0.2254
      9 C          59.3182   88.0608    7.6424 C.ar    1  UNL1        0.1189
     10 C          59.9886   89.0987    8.4930 C.ar    1  UNL1        0.0945
     11 N          61.0386   88.4147    9.3174 N.ar    1  UNL1       -0.3361
     12 H          61.6368   88.8482    9.9681 H       1  UNL1        0.1674
     13 O          64.5619   82.7285   11.3384 O.3     1  UNL1       -0.4755
     14 C          64.0729   81.8943   12.4850 C.3     1  UNL1        0.2054
     15 C          62.9606   80.9101   12.2757 C.3     1  UNL1        0.0473
     16 C          61.1242   81.0506   14.1082 C.3     1  UNL1        0.0001
     17 C          62.2559   80.3121   13.4572 C.3     1  UNL1        0.0038
@<TRIPOS>BOND
     1    16    17    1
     2    17    15    1
     3    15    14    1
     4    14    13    1
     5    13     1    1
     6     1     2   ar
     7     2     3   ar
     8     3     4   ar
     9     4     7    1
    10     7     8   ar
    11     8     9   ar
    12     9    10   ar
    13    10    11   ar
    14     4     5   ar
    15     5     6   ar
    16     6     1   ar
    17    11     7   ar
    18    11    12    1
@<TRIPOS>MOLECULE
*****
 17 18 0 0 0
SMALL
GASTEIGER

@<TRIPOS>ATOM
      1 C          63.7141   83.7826   10.7614 C.ar    1  UNL1        0.1386
      2 C          62.7727   84.5487   11.6429 C.ar    1  UNL1        0.0370
      3 C          61.8777   85.5973   11.0519 C.ar    1  UNL1        0.0061
      4 C          61.9239   85.8799    9.5796 C.ar    1  UNL1        0.0341
      5 C          62.8653   85.1139    8.6981 C.ar    1  UNL1        0.0061
      6 C          63.7603   84.0653    9.2890 C.ar    1  UNL1        0.0370
      7 C          61.0289   86.9286    8.9887 C.ar    1  UNL1        0.1406
      8 N          59.9598   86.6987    7.9619 N.ar    1  UNL1       -0.2254
      9 C          59.3159   88.0193    7.6594 C.ar    1  UNL1        0.1189
     10 C          59.9871   89.0654    8.4992 C.ar    1  UNL1        0.0945
     11 N          61.0457   88.3913    9.3207 N.ar    1  UNL1       -0.3361
     12 H          61.6462   88.8316    9.9648 H       1  UNL1        0.1674
     13 O          64.6091   82.7340   11.3523 O.3     1  UNL1       -0.4755
     14 C          64.1336   81.9080   12.5106 C.3     1  UNL1        0.2054
     15 C          62.9187   81.0405   12.3644 C.3     1  UNL1        0.0473
     16 C          60.9766   80.9311   14.0868 C.3     1  UNL1        0.0001
     17 C          62.2909   80.4187   13.5766 C.3     1  UNL1        0.0038
@<TRIPOS>BOND
     1    16    17    1
     2    17    15    1
     3    15    14    1
     4    14    13    1
     5    13     1    1
     6     1     2   ar
     7     2     3   ar
     8     3     4   ar
     9     4     7    1
    10     7     8   ar
    11     8     9   ar
    12     9    10   ar
    13    10    11   ar
    14     4     5   ar
    15     5     6   ar
    16     6     1   ar
    17    11     7   ar
    18    11    12    1
@<TRIPOS>MOLECULE
*****
 17 18 0 0 0
SMALL
GASTEIGER

@<TRIPOS>ATOM
      1 C          62.4146   88.9566   11.5657 C.ar    1  UNL1        0.1386
      2 C          62.4318   89.8267   10.3440 C.ar    1  UNL1        0.0370
      3 C          63.2793   91.0640   10.3162 C.ar    1  UNL1        0.0061
      4 C          64.1097   91.4312   11.5102 C.ar    1  UNL1        0.0341
      5 C          64.0925   90.5612   12.7319 C.ar    1  UNL1        0.0061
      6 C          63.2450   89.3238   12.7596 C.ar    1  UNL1        0.0370
      7 C          64.9572   92.6686   11.4824 C.ar    1  UNL1        0.1406
      8 N          65.6435   93.2938   12.6606 N.ar    1  UNL1       -0.2254
      9 C          66.3777   94.5095   12.1780 C.ar    1  UNL1        0.1189
     10 C          66.1452   94.6357   10.7015 C.ar    1  UNL1        0.0945
     11 N          65.2673   93.4979   10.2717 N.ar    1  UNL1       -0.3361
     12 H          64.9502   93.3257    9.3556 H       1  UNL1        0.1674
     13 O          61.5671   87.7193   11.5934 O.3     1  UNL1       -0.4755
     14 C          60.6666   87.4010   10.4369 C.3     1  UNL1        0.2054
     15 C          61.0001   86.2637    9.5174 C.3     1  UNL1        0.0473
     16 C          59.1225   86.8828    7.8317 C.3     1  UNL1        0.0001
     17 C          60.4450   86.2382    8.1241 C.3     1  UNL1        0.0038
@<TRIPOS>BOND
     1    16    17    1
     2    17    15    1
     3    15    14    1
     4    14    13    1
     5    13     1    1
     6     1     2   ar
     7     2     3   ar
     8     3     4   ar
     9     4     7    1
    10     7     8   ar
    11     8     9   ar
    12     9    10   ar
    13    10    11   ar
    14     4     5   ar
    15     5     6   ar
    16     6     1   ar
    17    11     7   ar
    18    11    12    1
@<TRIPOS>MOLECULE
*****
 17 18 0 0 0
SMALL
GASTEIGER

@<TRIPOS>ATOM
      1 C          63.0876   89.7428   12.4757 C.ar    1  UNL1        0.1386
      2 C          63.7243   89.2175   13.7282 C.ar    1  UNL1        0.0370
      3 C          64.8578   89.9662   14.3642 C.ar    1  UNL1        0.0061
      4 C          65.3548   91.2402   13.7477 C.ar    1  UNL1        0.0341
      5 C          64.7182   91.7654   12.4952 C.ar    1  UNL1        0.0061
      6 C          63.5846   91.0167   11.8592 C.ar    1  UNL1        0.0370
      7 C          66.4883   91.9888   14.3837 C.ar    1  UNL1        0.1406
      8 N          67.9477   91.7827   14.1048 N.ar    1  UNL1       -0.2254
      9 C          68.7229   92.7415   14.9590 C.ar    1  UNL1        0.1189
     10 C          67.7426   93.5404   15.7658 C.ar    1  UNL1        0.0945
     11 N          66.3616   93.0752   15.4102 N.ar    1  UNL1       -0.3361
     12 H          65.5198   93.4220   15.7848 H       1  UNL1        0.1674
     13 O          61.9541   88.9941   11.8397 O.3     1  UNL1       -0.4755
     14 C          62.2102   87.6827   11.1582 C.3     1  UNL1        0.2054
     15 C          62.1646   87.5937    9.6615 C.3     1  UNL1        0.0473
     16 C          63.0200   85.4500    8.4686 C.3     1  UNL1        0.0001
     17 C          61.8863   86.2782    8.9965 C.3     1  UNL1        0.0038
@<TRIPOS>BOND
     1    16    17    1
     2    17    15    1
     3    15    14    1
     4    14    13    1
     5    13     1    1
     6     1     2   ar
     7     2     3   ar
     8     3     4   ar
     9     4     7    1
    10     7     8   ar
    11     8     9   ar
    12     9    10   ar
    13    10    11   ar
    14     4     5   ar
    15     5     6   ar
    16     6     1   ar
    17    11     7   ar
    18    11    12    1
@<TRIPOS>MOLECULE
*****
 17 18 0 0 0
SMALL
GASTEIGER

@<TRIPOS>ATOM
      1 C          62.4494   89.4038   10.5424 C.ar    1  UNL1        0.1386
      2 C          62.7883   88.8766   11.9052 C.ar    1  UNL1        0.0370
      3 C          63.6417   89.6896   12.8330 C.ar    1  UNL1        0.0061
      4 C          64.1563   91.0297   12.3980 C.ar    1  UNL1        0.0341
      5 C          63.8175   91.5568   11.0352 C.ar    1  UNL1        0.0061
      6 C          62.9640   90.7439   10.1075 C.ar    1  UNL1        0.0370
      7 C          65.0097   91.8426   13.3258 C.ar    1  UNL1        0.1406
      8 N          65.1324   91.6488   14.8082 N.ar    1  UNL1       -0.2254
      9 C          66.0889   92.6785   15.3327 C.ar    1  UNL1        0.1189
     10 C          66.5573   93.5086   14.1745 C.ar    1  UNL1        0.0945
     11 N          65.8903   92.9920   12.9342 N.ar    1  UNL1       -0.3361
     12 H          66.0096   93.3453   12.0230 H       1  UNL1        0.1674
     13 O          61.5960   88.5909    9.6146 O.3     1  UNL1       -0.4755
     14 C          60.2538   89.1054    9.1858 C.3     1  UNL1        0.2054
     15 C          59.6556   88.6498    7.8879 C.3     1  UNL1        0.0473
     16 C          60.0507   86.0838    7.7908 C.3     1  UNL1        0.0001
     17 C          59.1157   87.2563    7.7592 C.3     1  UNL1        0.0038
@<TRIPOS>BOND
     1    16    17    1
     2    17    15    1
     3    15    14    1
     4    14    13    1
     5    13     1    1
     6     1     2   ar
     7     2     3   ar
     8     3     4   ar
     9     4     7    1
    10     7     8   ar
    11     8     9   ar
    12     9    10   ar
    13    10    11   ar
    14     4     5   ar
    15     5     6   ar
    16     6     1   ar
    17    11     7   ar
    18    11    12    1
@<TRIPOS>MOLECULE
*****
 17 18 0 0 0
SMALL
GASTEIGER

@<TRIPOS>ATOM
      1 C          64.2418   91.3524   12.4521 C.ar    1  UNL1        0.1386
      2 C          63.9898   91.8403   11.0562 C.ar    1  UNL1        0.0370
      3 C          63.0736   91.0749   10.1481 C.ar    1  UNL1        0.0061
      4 C          62.4093   89.8217   10.6358 C.ar    1  UNL1        0.0341
      5 C          62.6612   89.3338   12.0316 C.ar    1  UNL1        0.0061
      6 C          63.5774   90.0991   12.9398 C.ar    1  UNL1        0.0370
      7 C          61.4930   89.0563    9.7276 C.ar    1  UNL1        0.1406
      8 N          61.4872   87.5694    9.5304 N.ar    1  UNL1       -0.2254
      9 C          60.4123   87.2376    8.5381 C.ar    1  UNL1        0.1189
     10 C          59.7538   88.5195    8.1221 C.ar    1  UNL1        0.0945
     11 N          60.4217   89.6435    8.8573 N.ar    1  UNL1       -0.3361
     12 H          60.1965   90.5989    8.7818 H       1  UNL1        0.1674
     13 O          65.1580   92.1178   13.3602 O.3     1  UNL1       -0.4755
     14 C          65.8123   91.4278   14.5203 C.3     1  UNL1        0.2054
     15 C          67.2770   91.6218   14.7792 C.3     1  UNL1        0.0473
     16 C          68.7262   93.5150   15.8115 C.3     1  UNL1        0.0001
     17 C          67.7299   92.4057   15.9752 C.3     1  UNL1        0.0038
@<TRIPOS>BOND
     1    16    17    1
     2    17    15    1
     3    15    14    1
     4    14    13    1
     5    13     1    1
     6     1     2   ar
     7     2     3   ar
     8     3     4   ar
     9     4     7    1
    10     7     8   ar
    11     8     9   ar
    12     9    10   ar
    13    10    11   ar
    14     4     5   ar
    15     5     6   ar
    16     6     1   ar
    17    11     7   ar
    18    11    12    1
@<TRIPOS>MOLECULE
*****
 17 18 0 0 0
SMALL
GASTEIGER

@<TRIPOS>ATOM
      1 C          62.6987   89.9321   11.7685 C.ar    1  UNL1        0.1386
      2 C          63.6330   90.4630   12.8149 C.ar    1  UNL1        0.0370
      3 C          64.5977   91.5594   12.4724 C.ar    1  UNL1        0.0061
      4 C          64.6279   92.1250   11.0834 C.ar    1  UNL1        0.0341
      5 C          63.6935   91.5940   10.0370 C.ar    1  UNL1        0.0061
      6 C          62.7289   90.4976   10.3795 C.ar    1  UNL1        0.0370
      7 C          65.5925   93.2214   10.7409 C.ar    1  UNL1        0.1406
      8 N          66.7971   93.0916    9.8565 N.ar    1  UNL1       -0.2254
      9 C          67.4710   94.4301    9.7916 C.ar    1  UNL1        0.1189
     10 C          66.6829   95.3872   10.6359 C.ar    1  UNL1        0.0945
     11 N          65.5220   94.6402   11.2226 N.ar    1  UNL1       -0.3361
     12 H          64.8344   95.0153   11.8190 H       1  UNL1        0.1674
     13 O          61.7340   88.8357   12.1110 O.3     1  UNL1       -0.4755
     14 C          61.2010   87.9413   11.0313 C.3     1  UNL1        0.2054
     15 C          62.0389   86.8106   10.5123 C.3     1  UNL1        0.0473
     16 C          62.9277   85.4058    8.5156 C.3     1  UNL1        0.0001
     17 C          62.1766   86.5962    9.0340 C.3     1  UNL1        0.0038
@<TRIPOS>BOND
     1    16    17    1
     2    17    15    1
     3    15    14    1
     4    14    13    1
     5    13     1    1
     6     1     2   ar
     7     2     3   ar
     8     3     4   ar
     9     4     7    1
    10     7     8   ar
    11     8     9   ar
    12     9    10   ar
    13    10    11   ar
    14     4     5   ar
    15     5     6   ar
    16     6     1   ar
    17    11     7   ar
    18    11    12    1
@<TRIPOS>MOLECULE
*****
 17 18 0 0 0
SMALL
GASTEIGER

@<TRIPOS>ATOM
      1 C          63.9791   91.2046   12.2681 C.ar    1  UNL1        0.1386
      2 C          63.5394   91.5746   10.8825 C.ar    1  UNL1        0.0370
      3 C          62.7754   90.5885   10.0496 C.ar    1  UNL1        0.0061
      4 C          62.4510   89.2323   10.6023 C.ar    1  UNL1        0.0341
      5 C          62.8906   88.8622   11.9878 C.ar    1  UNL1        0.0061
      6 C          63.6547   89.8484   12.8207 C.ar    1  UNL1        0.0370
      7 C          61.6869   88.2461    9.7694 C.ar    1  UNL1        0.1406
      8 N          60.3388   88.4713    9.1515 N.ar    1  UNL1       -0.2254
      9 C          59.9555   87.2260    8.4084 C.ar    1  UNL1        0.1189
     10 C          61.0668   86.2311    8.5669 C.ar    1  UNL1        0.0945
     11 N          62.1368   86.8615    9.4081 N.ar    1  UNL1       -0.3361
     12 H          62.9855   86.4405    9.6760 H       1  UNL1        0.1674
     13 O          64.7431   92.1907   13.1010 O.3     1  UNL1       -0.4755
     14 C          65.7771   93.0699   12.4623 C.3     1  UNL1        0.2054
     15 C          66.9477   92.4570   11.7523 C.3     1  UNL1        0.0473
     16 C          68.3718   92.2037    9.5941 C.3     1  UNL1        0.0001
     17 C          67.1074   92.6413   10.2722 C.3     1  UNL1        0.0038
@<TRIPOS>BOND
     1    16    17    1
     2    17    15    1
     3    15    14    1
     4    14    13    1
     5    13     1    1
     6     1     2   ar
     7     2     3   ar
     8     3     4   ar
     9     4     7    1
    10     7     8   ar
    11     8     9   ar
    12     9    10   ar
    13    10    11   ar
    14     4     5   ar
    15     5     6   ar
    16     6     1   ar
    17    11     7   ar
    18    11    12    1
@<TRIPOS>MOLECULE
*****
 17 18 0 0 0
SMALL
GASTEIGER

@<TRIPOS>ATOM
      1 C          64.8924   92.0290   11.9741 C.ar    1  UNL1        0.1386
      2 C          63.7763   91.0629   11.7079 C.ar    1  UNL1        0.0370
      3 C          63.4317   90.0162   12.7256 C.ar    1  UNL1        0.0061
      4 C          64.2032   89.9357   14.0095 C.ar    1  UNL1        0.0341
      5 C          65.3193   90.9018   14.2756 C.ar    1  UNL1        0.0061
      6 C          65.6639   91.9485   13.2579 C.ar    1  UNL1        0.0370
      7 C          63.8586   88.8890   15.0272 C.ar    1  UNL1        0.1406
      8 N          63.1653   89.1263   16.3360 N.ar    1  UNL1       -0.2254
      9 C          63.0250   87.8052   17.0325 C.ar    1  UNL1        0.1189
     10 C          63.6316   86.7514   16.1541 C.ar    1  UNL1        0.0945
     11 N          64.1468   87.4212   14.9147 N.ar    1  UNL1       -0.3361
     12 H          64.5953   86.9757   14.1600 H       1  UNL1        0.1674
     13 O          65.2369   93.0757   10.9564 O.3     1  UNL1       -0.4755
     14 C          66.4472   93.9404   11.1500 C.3     1  UNL1        0.2054
     15 C          67.1406   94.5371    9.9613 C.3     1  UNL1        0.0473
     16 C          68.4629   92.3424    9.5312 C.3     1  UNL1        0.0001
     17 C          67.9436   93.6627    9.0443 C.3     1  UNL1        0.0038
@<TRIPOS>BOND
     1    16    17    1
     2    17    15    1
     3    15    14    1
     4    14    13    1
     5    13     1    1
     6     1     2   ar
     7     2     3   ar
     8     3     4   ar
     9     4     7    1
    10     7     8   ar
    11     8     9   ar
    12     9    10   ar
    13    10    11   ar
    14     4     5   ar
    15     5     6   ar
    16     6     1   ar
    17    11     7   ar
    18    11    12    1
