@<TRIPOS>MOLECULE
*****
 39 41 0 0 0
SMALL
GASTEIGER

@<TRIPOS>ATOM
      1 C          58.6226   89.9400    6.2254 C.3     1  UNL1        0.0310
      2 C          59.3736   89.0109    7.1325 C.ar    1  UNL1       -0.0220
      3 C          59.3968   87.5388    6.8457 C.ar    1  UNL1       -0.0030
      4 C          60.1477   86.6097    7.7527 C.ar    1  UNL1        0.0139
      5 C          60.8755   87.1527    8.9466 C.ar    1  UNL1        0.0454
      6 C          60.8524   88.6248    9.2335 C.ar    1  UNL1        0.0085
      7 C          60.1014   89.5539    8.3264 C.ar    1  UNL1       -0.0057
      8 N          61.6265   86.2236    9.8537 N.pl3   1  UNL1       -0.3043
      9 C          61.3037   86.1812   11.3179 C.3     1  UNL1        0.1123
     10 C          62.0547   85.2521   12.2250 C.3     1  UNL1        0.1148
     11 N          63.1285   84.3653   11.6678 N.am    1  UNL1       -0.2760
     12 C          63.8794   83.4362   12.5749 C.2     1  UNL1        0.2256
     13 O          64.9533   82.5494   12.0177 O.2     1  UNL1       -0.2749
     14 C          63.4513   84.4076   10.2036 C.3     1  UNL1        0.1148
     15 C          62.7003   85.3368    9.2966 C.3     1  UNL1        0.1123
     16 C          63.5566   83.3939   14.0391 C.3     1  UNL1        0.0811
     17 C          62.3675   82.6180   14.5228 C.3     1  UNL1        0.0099
     18 C          64.4229   84.1274   15.0197 C.3     1  UNL1        0.0377
     19 C          64.1219   85.5559   15.3642 C.ar    1  UNL1        0.0058
     20 C          64.7012   86.6651   14.5370 C.ar    1  UNL1       -0.0012
     21 C          64.4002   88.0936   14.8815 C.ar    1  UNL1        0.0112
     22 C          63.5200   88.4130   16.0533 C.ar    1  UNL1        0.0599
     23 CL         63.2190   89.8415   16.3979 Cl      1  UNL1       -0.0822
     24 C          62.9407   87.3039   16.8806 C.ar    1  UNL1        0.0407
     25 C          63.2417   85.8754   16.5360 C.ar    1  UNL1        0.1370
     26 F          62.6624   84.7663   17.3633 F       1  UNL1       -0.2045
     27 C          61.5802   89.1678   10.4274 C.3     1  UNL1        0.0951
     28 N          63.0046   89.6194   10.2960 N.am    1  UNL1       -0.3021
     29 C          63.3667   91.0486   10.5716 C.2     1  UNL1        0.2241
     30 O          62.3045   92.0265   10.9786 O.2     1  UNL1       -0.2750
     31 H          63.7017   88.9776   10.0288 H       1  UNL1        0.1497
     32 C          64.7911   91.5002   10.4401 C.3     1  UNL1        0.1023
     33 C          65.2489   92.7492   11.1332 C.3     1  UNL1        0.0818
     34 N          65.6033   92.7116   12.5902 N.3     1  UNL1       -0.2699
     35 C          66.4464   93.8002   13.1854 C.3     1  UNL1        0.0897
     36 C          65.1147   91.5853   13.4521 C.3     1  UNL1        0.0897
     37 C          60.8837   89.2593   11.7527 C.3     1  UNL1        0.0223
     38 C          59.3915   89.1245   11.8266 C.3     1  UNL1        0.0020
     39 C          61.6792   89.4857   13.0040 C.3     1  UNL1        0.0020
@<TRIPOS>BOND
     1     1     2    1
     2     2     3   ar
     3     3     4   ar
     4     4     5   ar
     5     5     8    1
     6     8     9    1
     7     9    10    1
     8    10    11    1
     9    11    12   am
    10    12    13    2
    11    12    16    1
    12    16    17    1
    13    16    18    1
    14    18    19    1
    15    19    20   ar
    16    20    21   ar
    17    21    22   ar
    18    22    23    1
    19    22    24   ar
    20    24    25   ar
    21    25    26    1
    22    11    14    1
    23    14    15    1
    24     5     6   ar
    25     6    27    1
    26    27    28    1
    27    28    29   am
    28    29    30    2
    29    29    32    1
    30    32    33    1
    31    33    34    1
    32    34    35    1
    33    34    36    1
    34    27    37    1
    35    37    38    1
    36    37    39    1
    37     6     7   ar
    38     7     2   ar
    39    15     8    1
    40    25    19   ar
    41    28    31    1
@<TRIPOS>MOLECULE
*****
 39 41 0 0 0
SMALL
GASTEIGER

@<TRIPOS>ATOM
      1 C          58.8087   86.7279    7.3681 C.3     1  UNL1        0.0310
      2 C          59.6805   87.4291    8.3673 C.ar    1  UNL1       -0.0220
      3 C          59.6430   88.9246    8.4763 C.ar    1  UNL1       -0.0030
      4 C          60.5148   89.6259    9.4755 C.ar    1  UNL1        0.0139
      5 C          61.4239   88.8315   10.3657 C.ar    1  UNL1        0.0454
      6 C          61.4614   87.3360   10.2566 C.ar    1  UNL1        0.0085
      7 C          60.5896   86.6348    9.2574 C.ar    1  UNL1       -0.0057
      8 N          62.2957   89.5327   11.3649 N.pl3   1  UNL1       -0.3043
      9 C          63.5433   90.2315   10.9119 C.3     1  UNL1        0.1123
     10 C          64.4150   90.9327   11.9111 C.3     1  UNL1        0.1148
     11 N          64.0391   90.9351   13.3632 N.am    1  UNL1       -0.2760
     12 C          64.9109   91.6363   14.3624 C.2     1  UNL1        0.2256
     13 O          64.5350   91.6388   15.8146 O.2     1  UNL1       -0.2749
     14 C          62.7915   90.2364   13.8162 C.3     1  UNL1        0.1148
     15 C          61.9198   89.5352   12.8170 C.3     1  UNL1        0.1123
     16 C          66.1585   92.3351   13.9095 C.3     1  UNL1        0.0811
     17 C          67.4770   91.6215   13.9569 C.3     1  UNL1        0.0099
     18 C          66.0876   93.7475   13.4092 C.3     1  UNL1        0.0377
     19 C          66.4319   94.0559   11.9823 C.ar    1  UNL1        0.0058
     20 C          66.8545   92.9530   11.0575 C.ar    1  UNL1       -0.0012
     21 C          67.1988   93.2613    9.6305 C.ar    1  UNL1        0.0112
     22 C          67.1206   94.6726    9.1283 C.ar    1  UNL1        0.0599
     23 CL         67.4650   94.9810    7.7013 Cl      1  UNL1       -0.0822
     24 C          66.6981   95.7755   10.0530 C.ar    1  UNL1        0.0407
     25 C          66.3537   95.4671   11.4800 C.ar    1  UNL1        0.1370
     26 F          65.9312   96.5700   12.4047 F       1  UNL1       -0.2045
     27 C          62.3706   86.5416   11.1468 C.3     1  UNL1        0.0951
     28 N          62.9447   87.1678   12.3830 N.am    1  UNL1       -0.3021
     29 C          63.7606   86.3416   13.3326 C.2     1  UNL1        0.2241
     30 O          64.0024   84.8892   13.0459 O.2     1  UNL1       -0.2750
     31 H          62.7860   88.1210   12.5711 H       1  UNL1        0.1497
     32 C          64.3348   86.9678   14.5688 C.3     1  UNL1        0.1023
     33 C          64.0507   86.3686   15.9143 C.3     1  UNL1        0.0818
     34 N          63.1983   87.1102   16.9008 N.3     1  UNL1       -0.2699
     35 C          63.1295   88.6079   16.8556 C.3     1  UNL1        0.0897
     36 C          62.4148   86.3542   17.9325 C.3     1  UNL1        0.0897
     37 C          62.7056   85.1211   10.8007 C.3     1  UNL1        0.0223
     38 C          62.2414   84.0036   11.6872 C.3     1  UNL1        0.0020
     39 C          63.5049   84.8179    9.5681 C.3     1  UNL1        0.0020
@<TRIPOS>BOND
     1     1     2    1
     2     2     3   ar
     3     3     4   ar
     4     4     5   ar
     5     5     8    1
     6     8     9    1
     7     9    10    1
     8    10    11    1
     9    11    12   am
    10    12    13    2
    11    12    16    1
    12    16    17    1
    13    16    18    1
    14    18    19    1
    15    19    20   ar
    16    20    21   ar
    17    21    22   ar
    18    22    23    1
    19    22    24   ar
    20    24    25   ar
    21    25    26    1
    22    11    14    1
    23    14    15    1
    24     5     6   ar
    25     6    27    1
    26    27    28    1
    27    28    29   am
    28    29    30    2
    29    29    32    1
    30    32    33    1
    31    33    34    1
    32    34    35    1
    33    34    36    1
    34    27    37    1
    35    37    38    1
    36    37    39    1
    37     6     7   ar
    38     7     2   ar
    39    15     8    1
    40    25    19   ar
    41    28    31    1
@<TRIPOS>MOLECULE
*****
 39 41 0 0 0
SMALL
GASTEIGER

@<TRIPOS>ATOM
      1 C          62.2211   80.4588   13.4665 C.3     1  UNL1        0.0310
      2 C          62.5125   81.9296   13.4261 C.ar    1  UNL1       -0.0220
      3 C          62.9459   82.6429   14.6725 C.ar    1  UNL1       -0.0030
      4 C          63.2374   84.1137   14.6320 C.ar    1  UNL1        0.0139
      5 C          63.0955   84.8713   13.3452 C.ar    1  UNL1        0.0454
      6 C          62.6621   84.1581   12.0989 C.ar    1  UNL1        0.0085
      7 C          62.3707   82.6873   12.1393 C.ar    1  UNL1       -0.0057
      8 N          63.3870   86.3422   13.3048 N.pl3   1  UNL1       -0.3043
      9 C          64.2598   86.9630   14.3550 C.3     1  UNL1        0.1123
     10 C          64.5513   88.4338   14.3145 C.3     1  UNL1        0.1148
     11 N          63.9700   89.2839   13.2240 N.am    1  UNL1       -0.2760
     12 C          64.2614   90.7548   13.1835 C.2     1  UNL1        0.2256
     13 O          63.6801   91.6048   12.0930 O.2     1  UNL1       -0.2749
     14 C          63.0972   88.6631   12.1738 C.3     1  UNL1        0.1148
     15 C          62.8057   87.1923   12.2143 C.3     1  UNL1        0.1123
     16 C          65.1342   91.3755   14.2337 C.3     1  UNL1        0.0811
     17 C          64.6277   91.5249   15.6376 C.3     1  UNL1        0.0099
     18 C          66.5136   91.8469   13.8799 C.3     1  UNL1        0.0377
     19 C          66.7692   92.4852   12.5468 C.ar    1  UNL1        0.0058
     20 C          65.8964   93.6099   12.0740 C.ar    1  UNL1       -0.0012
     21 C          66.1519   94.2482   10.7409 C.ar    1  UNL1        0.0112
     22 C          67.2802   93.7619    9.8805 C.ar    1  UNL1        0.0599
     23 CL         67.5357   94.4001    8.5473 Cl      1  UNL1       -0.0822
     24 C          68.1530   92.6373   10.3531 C.ar    1  UNL1        0.0407
     25 C          67.8975   91.9989   11.6863 C.ar    1  UNL1        0.1370
     26 F          68.7703   90.8743   12.1589 F       1  UNL1       -0.2045
     27 C          62.5202   84.9157   10.8120 C.3     1  UNL1        0.0951
     28 N          61.4916   86.0006   10.6899 N.am    1  UNL1       -0.3021
     29 C          60.7076   86.1514    9.4201 C.2     1  UNL1        0.2241
     30 O          60.9523   85.2172    8.2722 O.2     1  UNL1       -0.2750
     31 H          61.3310   86.6137   11.4433 H       1  UNL1        0.1497
     32 C          59.6790   87.2363    9.2980 C.3     1  UNL1        0.1023
     33 C          60.0942   88.6756    9.3754 C.3     1  UNL1        0.0818
     34 N          59.9896   89.4176   10.6748 N.3     1  UNL1       -0.2699
     35 C          60.5168   90.8176   10.7835 C.3     1  UNL1        0.0897
     36 C          59.3579   88.7594   11.8655 C.3     1  UNL1        0.0897
     37 C          63.4069   84.5884    9.6473 C.3     1  UNL1        0.0223
     38 C          63.4709   85.5153    8.4696 C.3     1  UNL1        0.0020
     39 C          64.2298   83.3343    9.6603 C.3     1  UNL1        0.0020
@<TRIPOS>BOND
     1     1     2    1
     2     2     3   ar
     3     3     4   ar
     4     4     5   ar
     5     5     8    1
     6     8     9    1
     7     9    10    1
     8    10    11    1
     9    11    12   am
    10    12    13    2
    11    12    16    1
    12    16    17    1
    13    16    18    1
    14    18    19    1
    15    19    20   ar
    16    20    21   ar
    17    21    22   ar
    18    22    23    1
    19    22    24   ar
    20    24    25   ar
    21    25    26    1
    22    11    14    1
    23    14    15    1
    24     5     6   ar
    25     6    27    1
    26    27    28    1
    27    28    29   am
    28    29    30    2
    29    29    32    1
    30    32    33    1
    31    33    34    1
    32    34    35    1
    33    34    36    1
    34    27    37    1
    35    37    38    1
    36    37    39    1
    37     6     7   ar
    38     7     2   ar
    39    15     8    1
    40    25    19   ar
    41    28    31    1
@<TRIPOS>MOLECULE
*****
 39 41 0 0 0
SMALL
GASTEIGER

@<TRIPOS>ATOM
      1 C          68.3912   93.8340   16.3825 C.3     1  UNL1        0.0310
      2 C          67.4018   93.1574   15.4806 C.ar    1  UNL1       -0.0220
      3 C          66.2479   92.3998   16.0675 C.ar    1  UNL1       -0.0030
      4 C          65.2585   91.7232   15.1657 C.ar    1  UNL1        0.0139
      5 C          65.4230   91.8042   13.6770 C.ar    1  UNL1        0.0454
      6 C          66.5770   92.5618   13.0901 C.ar    1  UNL1        0.0085
      7 C          67.5664   93.2384   13.9919 C.ar    1  UNL1       -0.0057
      8 N          64.4336   91.1276   12.7752 N.pl3   1  UNL1       -0.3043
      9 C          64.1137   89.6749   12.9685 C.3     1  UNL1        0.1123
     10 C          63.1243   88.9983   12.0667 C.3     1  UNL1        0.1148
     11 N          62.4549   89.7744   10.9715 N.am    1  UNL1       -0.2760
     12 C          61.4655   89.0977   10.0697 C.2     1  UNL1        0.2256
     13 O          60.7960   89.8738    8.9745 O.2     1  UNL1       -0.2749
     14 C          62.7748   91.2270   10.7782 C.3     1  UNL1        0.1148
     15 C          63.7641   91.9036   11.6800 C.3     1  UNL1        0.1123
     16 C          61.1456   87.6451   10.2631 C.3     1  UNL1        0.0811
     17 C          60.2240   86.9464    9.3078 C.3     1  UNL1        0.0099
     18 C          61.7473   86.8910   11.4118 C.3     1  UNL1        0.0377
     19 C          62.4068   85.5648   11.1751 C.ar    1  UNL1        0.0058
     20 C          62.8018   85.1610    9.7855 C.ar    1  UNL1       -0.0012
     21 C          63.4614   83.8347    9.5488 C.ar    1  UNL1        0.0112
     22 C          63.7259   82.9123   10.7016 C.ar    1  UNL1        0.0599
     23 CL         64.3854   81.5860   10.4650 Cl      1  UNL1       -0.0822
     24 C          63.3309   83.3160   12.0912 C.ar    1  UNL1        0.0407
     25 C          62.6713   84.6423   12.3279 C.ar    1  UNL1        0.1370
     26 F          62.2763   85.0461   13.7175 F       1  UNL1       -0.2045
     27 C          66.7415   92.6428   11.6013 C.3     1  UNL1        0.0951
     28 N          65.8058   93.4872   10.7882 N.am    1  UNL1       -0.3021
     29 C          65.7989   94.9773   10.9599 C.2     1  UNL1        0.2241
     30 O          66.7280   95.6230   11.9449 O.2     1  UNL1       -0.2750
     31 H          65.1960   93.0634   10.1417 H       1  UNL1        0.1497
     32 C          64.8632   95.8217   10.1468 C.3     1  UNL1        0.1023
     33 C          65.4101   96.8538    9.2056 C.3     1  UNL1        0.0818
     34 N          66.1229   96.4271    7.9567 N.3     1  UNL1       -0.2699
     35 C          67.4870   95.8096    8.0454 C.3     1  UNL1        0.0897
     36 C          65.4717   96.6180    6.6190 C.3     1  UNL1        0.0897
     37 C          67.8419   91.8793   10.9257 C.3     1  UNL1        0.0223
     38 C          68.8730   91.1644   11.7478 C.3     1  UNL1        0.0020
     39 C          67.9111   91.8307    9.4281 C.3     1  UNL1        0.0020
@<TRIPOS>BOND
     1     1     2    1
     2     2     3   ar
     3     3     4   ar
     4     4     5   ar
     5     5     8    1
     6     8     9    1
     7     9    10    1
     8    10    11    1
     9    11    12   am
    10    12    13    2
    11    12    16    1
    12    16    17    1
    13    16    18    1
    14    18    19    1
    15    19    20   ar
    16    20    21   ar
    17    21    22   ar
    18    22    23    1
    19    22    24   ar
    20    24    25   ar
    21    25    26    1
    22    11    14    1
    23    14    15    1
    24     5     6   ar
    25     6    27    1
    26    27    28    1
    27    28    29   am
    28    29    30    2
    29    29    32    1
    30    32    33    1
    31    33    34    1
    32    34    35    1
    33    34    36    1
    34    27    37    1
    35    37    38    1
    36    37    39    1
    37     6     7   ar
    38     7     2   ar
    39    15     8    1
    40    25    19   ar
    41    28    31    1
@<TRIPOS>MOLECULE
*****
 39 41 0 0 0
SMALL
GASTEIGER

@<TRIPOS>ATOM
      1 C          58.2453   86.5335    7.3614 C.3     1  UNL1        0.0310
      2 C          59.2749   87.1698    8.2474 C.ar    1  UNL1       -0.0220
      3 C          59.2303   88.6462    8.5087 C.ar    1  UNL1       -0.0030
      4 C          60.2600   89.2825    9.3947 C.ar    1  UNL1        0.0139
      5 C          61.3342   88.4424   10.0194 C.ar    1  UNL1        0.0454
      6 C          61.3788   86.9661    9.7581 C.ar    1  UNL1        0.0085
      7 C          60.3491   86.3298    8.8721 C.ar    1  UNL1       -0.0057
      8 N          62.3638   89.0787   10.9054 N.pl3   1  UNL1       -0.3043
      9 C          63.1552   90.2534   10.4118 C.3     1  UNL1        0.1123
     10 C          64.1848   90.8897   11.2978 C.3     1  UNL1        0.1148
     11 N          64.4230   90.3513   12.6774 N.am    1  UNL1       -0.2760
     12 C          65.4527   90.9876   13.5634 C.2     1  UNL1        0.2256
     13 O          65.6909   90.4492   14.9430 O.2     1  UNL1       -0.2749
     14 C          63.6316   89.1766   13.1710 C.3     1  UNL1        0.1148
     15 C          62.6020   88.5403   12.2850 C.3     1  UNL1        0.1123
     16 C          66.2441   92.1623   13.0699 C.3     1  UNL1        0.0811
     17 C          67.7426   92.1001   13.0450 C.3     1  UNL1        0.0099
     18 C          65.5370   93.3994   12.6011 C.3     1  UNL1        0.0377
     19 C          66.1176   94.2184   11.4866 C.ar    1  UNL1        0.0058
     20 C          66.1792   95.7124   11.6070 C.ar    1  UNL1       -0.0012
     21 C          66.7598   96.5313   10.4926 C.ar    1  UNL1        0.0112
     22 C          67.2789   95.8565    9.2576 C.ar    1  UNL1        0.0599
     23 CL         67.8596   96.6754    8.1432 Cl      1  UNL1       -0.0822
     24 C          67.2174   94.3626    9.1372 C.ar    1  UNL1        0.0407
     25 C          66.6368   93.5435   10.2517 C.ar    1  UNL1        0.1370
     26 F          66.5753   92.0497   10.1312 F       1  UNL1       -0.2045
     27 C          62.4530   86.1259   10.3829 C.3     1  UNL1        0.0951
     28 N          62.6187   86.1072   11.8736 N.am    1  UNL1       -0.3021
     29 C          62.4855   84.8169   12.6268 C.2     1  UNL1        0.2241
     30 O          62.1866   83.5453   11.8894 O.2     1  UNL1       -0.2750
     31 H          62.8148   86.9417   12.3576 H       1  UNL1        0.1497
     32 C          62.6511   84.7981   14.1175 C.3     1  UNL1        0.1023
     33 C          62.1604   83.6241   14.9120 C.3     1  UNL1        0.0818
     34 N          62.5140   82.2300   14.4863 N.3     1  UNL1       -0.2699
     35 C          63.9495   81.8540   14.2677 C.3     1  UNL1        0.0897
     36 C          61.4321   81.2119   14.2792 C.3     1  UNL1        0.0897
     37 C          63.3616   85.3046    9.5169 C.3     1  UNL1        0.0223
     38 C          63.4638   85.5957    8.0489 C.3     1  UNL1        0.0020
     39 C          64.1679   84.1922   10.1188 C.3     1  UNL1        0.0020
@<TRIPOS>BOND
     1     1     2    1
     2     2     3   ar
     3     3     4   ar
     4     4     5   ar
     5     5     8    1
     6     8     9    1
     7     9    10    1
     8    10    11    1
     9    11    12   am
    10    12    13    2
    11    12    16    1
    12    16    17    1
    13    16    18    1
    14    18    19    1
    15    19    20   ar
    16    20    21   ar
    17    21    22   ar
    18    22    23    1
    19    22    24   ar
    20    24    25   ar
    21    25    26    1
    22    11    14    1
    23    14    15    1
    24     5     6   ar
    25     6    27    1
    26    27    28    1
    27    28    29   am
    28    29    30    2
    29    29    32    1
    30    32    33    1
    31    33    34    1
    32    34    35    1
    33    34    36    1
    34    27    37    1
    35    37    38    1
    36    37    39    1
    37     6     7   ar
    38     7     2   ar
    39    15     8    1
    40    25    19   ar
    41    28    31    1
