@<TRIPOS>MOLECULE
*****
 43 45 0 0 0
SMALL
GASTEIGER

@<TRIPOS>ATOM
      1 C          63.5315   89.6042   12.7883 C.3     1  UNL1        0.1086
      2 O          63.4212   89.0558   11.3966 O.3     1  UNL1       -0.3826
      3 H          63.2312   89.7787   10.7783 H       1  UNL1        0.2107
      4 C          63.8041   88.2246   13.3103 C.3     1  UNL1        0.0485
      5 C          64.6289   88.0411   14.5496 C.3     1  UNL1        0.0061
      6 C          64.9015   86.6614   15.0716 C.3     1  UNL1        0.0217
      7 C          64.3492   85.4655   14.3543 C.3     1  UNL1        0.0934
      8 N          63.5243   85.6490   13.1150 N.am    1  UNL1       -0.2794
      9 C          62.9720   84.4530   12.3976 C.2     1  UNL1        0.2281
     10 O          62.1472   84.6366   11.1583 O.2     1  UNL1       -0.2748
     11 C          63.2518   87.0286   12.5930 C.3     1  UNL1        0.0960
     12 C          63.2446   83.0734   12.9196 C.3     1  UNL1        0.1158
     13 C          63.2599   81.9051   11.9790 C.3     1  UNL1        0.1353
     14 O          63.7883   82.0714   10.5850 O.3     1  UNL1       -0.3825
     15 H          63.7270   81.2262   10.1131 H       1  UNL1        0.2104
     16 C          62.7467   80.5705   12.4323 C.3     1  UNL1        0.0987
     17 N          62.2066   80.4073   13.8222 N.3     1  UNL1       -0.2943
     18 C          60.7793   80.7607   14.1184 C.3     1  UNL1        0.0859
     19 H          62.7856   80.9839   14.4326 H       1  UNL1        0.1234
     20 C          64.7048   91.1590   14.5076 C.ar    1  UNL1        0.0257
     21 C          64.8152   91.7074   15.8994 C.ar    1  UNL1        0.1398
     22 F          65.8781   92.7139   16.2268 F       1  UNL1       -0.2042
     23 C          63.8626   91.2494   16.9638 C.ar    1  UNL1        0.0296
     24 C          62.7997   90.2429   16.6363 C.ar    1  UNL1        0.0021
     25 C          62.6893   89.6945   15.2445 C.ar    1  UNL1       -0.0019
     26 C          63.6419   90.1526   14.1802 C.ar    1  UNL1        0.0039
     27 C          66.1403   93.0102   11.3041 C.ar    1  UNL1       -0.0222
     28 C          67.5623   92.5332   11.3145 C.ar    1  UNL1       -0.0043
     29 C          68.0319   91.5981   12.3892 C.ar    1  UNL1       -0.0003
     30 C          67.0794   91.1400   13.4536 C.ar    1  UNL1        0.0000
     31 C          65.6574   91.6171   13.4432 C.ar    1  UNL1        0.0016
     32 C          65.1878   92.5522   12.3685 C.ar    1  UNL1       -0.0042
     33 C          65.7497   95.4285   10.4386 C.3     1  UNL1        0.0050
     34 C          65.6707   93.9453   10.2293 C.3     1  UNL1        0.0264
     35 C          63.2589   90.9837   12.2663 C.3     1  UNL1        0.0330
     36 C          62.5316   91.1638   10.9669 C.3     1  UNL1        0.0241
     37 C          61.0821   90.7929   10.8610 C.3     1  UNL1        0.0928
     38 N          60.6291   89.8328    9.8013 N.am    1  UNL1       -0.2707
     39 C          60.1505   88.4639   10.1845 C.2     1  UNL1        0.4017
     40 O          60.1250   88.0549   11.6276 O.2     1  UNL1       -0.2264
     41 H          60.6458   90.1012    8.8542 H       1  UNL1        0.1527
     42 O          59.6975   87.5038    9.1248 O.3     1  UNL1       -0.4306
     43 C          60.6510   86.4807    8.5824 C.3     1  UNL1        0.2573
@<TRIPOS>BOND
     1    33    34    1
     2    34    27    1
     3    27    28   ar
     4    28    29   ar
     5    29    30   ar
     6    30    31   ar
     7    31    20    1
     8    20    21   ar
     9    21    22    1
    10    21    23   ar
    11    23    24   ar
    12    24    25   ar
    13    25    26   ar
    14    26     1    1
    15     1     2    1
    16     1    35    1
    17    35    36    1
    18    36    37    1
    19    37    38    1
    20    38    39   am
    21    39    40    2
    22    39    42    1
    23    42    43    1
    24     4     1    1
    25     4     5    1
    26     5     6    1
    27     6     7    1
    28     7     8    1
    29     8     9   am
    30     9    10    2
    31     9    12    1
    32    12    13    1
    33    13    14    1
    34    13    16    1
    35    16    17    1
    36    17    18    1
    37     8    11    1
    38    31    32   ar
    39    32    27   ar
    40    26    20   ar
    41    11     4    1
    42     2     3    1
    43    38    41    1
    44    14    15    1
    45    17    19    1
@<TRIPOS>MOLECULE
*****
 43 45 0 0 0
SMALL
GASTEIGER

@<TRIPOS>ATOM
      1 C          63.0613   88.3636   12.4904 C.3     1  UNL1        0.1086
      2 O          64.4581   88.1522   12.9944 O.3     1  UNL1       -0.3826
      3 H          64.5104   87.2998   13.4543 H       1  UNL1        0.2107
      4 C          63.4694   89.6870   11.9142 C.3     1  UNL1        0.0485
      5 C          62.9458   90.1158   10.5756 C.3     1  UNL1        0.0061
      6 C          63.3540   91.4393    9.9995 C.3     1  UNL1        0.0217
      7 C          64.2857   92.3339   10.7620 C.3     1  UNL1        0.0934
      8 N          64.8093   91.9051   12.1006 N.am    1  UNL1       -0.2794
      9 C          65.7411   92.7998   12.8631 C.2     1  UNL1        0.2281
     10 O          66.2648   92.3710   14.2018 O.2     1  UNL1       -0.2748
     11 C          64.4012   90.5817   12.6767 C.3     1  UNL1        0.0960
     12 C          66.1493   94.1232   12.2870 C.3     1  UNL1        0.1158
     13 C          66.8528   94.1800   10.9635 C.3     1  UNL1        0.1353
     14 O          67.7569   93.0583   10.5459 O.3     1  UNL1       -0.3825
     15 H          68.1289   93.2514    9.6711 H       1  UNL1        0.2104
     16 C          66.6523   95.3587   10.0575 C.3     1  UNL1        0.0987
     17 N          67.7053   95.7193    9.0519 N.3     1  UNL1       -0.2943
     18 C          67.4319   96.7805    8.0276 C.3     1  UNL1        0.0859
     19 H          67.9278   94.8659    8.5396 H       1  UNL1        0.1234
     20 C          61.1119   87.6852   10.9124 C.ar    1  UNL1        0.0257
     21 C          59.7150   87.8966   10.4083 C.ar    1  UNL1        0.1398
     22 F          59.1626   87.0069    9.3345 F       1  UNL1       -0.2042
     23 C          58.8706   88.9978   10.9781 C.ar    1  UNL1        0.0296
     24 C          59.4231   89.8875   12.0519 C.ar    1  UNL1        0.0021
     25 C          60.8200   89.6761   12.5560 C.ar    1  UNL1       -0.0019
     26 C          61.6644   88.5750   11.9863 C.ar    1  UNL1        0.0039
     27 C          63.0380   84.2326   10.5669 C.ar    1  UNL1       -0.0222
     28 C          63.6450   84.3819    9.2034 C.ar    1  UNL1       -0.0043
     29 C          63.4077   85.6323    8.4095 C.ar    1  UNL1       -0.0003
     30 C          62.5633   86.7334    8.9792 C.ar    1  UNL1        0.0000
     31 C          61.9563   86.5841   10.3427 C.ar    1  UNL1        0.0016
     32 C          62.1936   85.3337   11.1365 C.ar    1  UNL1       -0.0042
     33 C          63.5156   81.6804   10.6555 C.3     1  UNL1        0.0050
     34 C          63.2753   82.9822   11.3607 C.3     1  UNL1        0.0264
     35 C          62.6531   87.0402   13.0665 C.3     1  UNL1        0.0330
     36 C          63.6587   86.1955   13.7913 C.3     1  UNL1        0.0241
     37 C          63.2249   85.3309   14.9377 C.3     1  UNL1        0.0928
     38 N          62.1550   84.2990   14.7359 N.am    1  UNL1       -0.2707
     39 C          62.5116   82.8422   14.7197 C.2     1  UNL1        0.4017
     40 O          63.9382   82.4171   14.9053 O.2     1  UNL1       -0.2264
     41 H          61.2188   84.5780   14.6140 H       1  UNL1        0.1527
     42 O          61.4418   81.8103   14.5179 O.3     1  UNL1       -0.4306
     43 C          61.7456   80.5539   13.7569 C.3     1  UNL1        0.2573
@<TRIPOS>BOND
     1    33    34    1
     2    34    27    1
     3    27    28   ar
     4    28    29   ar
     5    29    30   ar
     6    30    31   ar
     7    31    20    1
     8    20    21   ar
     9    21    22    1
    10    21    23   ar
    11    23    24   ar
    12    24    25   ar
    13    25    26   ar
    14    26     1    1
    15     1     2    1
    16     1    35    1
    17    35    36    1
    18    36    37    1
    19    37    38    1
    20    38    39   am
    21    39    40    2
    22    39    42    1
    23    42    43    1
    24     4     1    1
    25     4     5    1
    26     5     6    1
    27     6     7    1
    28     7     8    1
    29     8     9   am
    30     9    10    2
    31     9    12    1
    32    12    13    1
    33    13    14    1
    34    13    16    1
    35    16    17    1
    36    17    18    1
    37     8    11    1
    38    31    32   ar
    39    32    27   ar
    40    26    20   ar
    41    11     4    1
    42     2     3    1
    43    38    41    1
    44    14    15    1
    45    17    19    1
@<TRIPOS>MOLECULE
*****
 43 45 0 0 0
SMALL
GASTEIGER

@<TRIPOS>ATOM
      1 C          62.4610   87.5746   12.0905 C.3     1  UNL1        0.1086
      2 O          63.4377   86.6353   12.7338 O.3     1  UNL1       -0.3826
      3 H          63.1435   85.7209   12.5993 H       1  UNL1        0.2107
      4 C          63.2888   88.7423   12.5387 C.3     1  UNL1        0.0485
      5 C          63.8933   88.7504   13.9115 C.3     1  UNL1        0.0061
      6 C          64.7212   89.9182   14.3597 C.3     1  UNL1        0.0217
      7 C          64.9446   91.0780   13.4350 C.3     1  UNL1        0.0934
      8 N          64.3401   91.0700   12.0622 N.am    1  UNL1       -0.2794
      9 C          64.5635   92.2299   11.1376 C.2     1  UNL1        0.2281
     10 O          63.9591   92.2218    9.7648 O.2     1  UNL1       -0.2748
     11 C          63.5123   89.9022   11.6141 C.3     1  UNL1        0.0960
     12 C          65.3914   93.3976   11.5858 C.3     1  UNL1        0.1158
     13 C          65.8127   94.4423   10.5953 C.3     1  UNL1        0.1353
     14 O          64.9334   95.6300   10.3382 O.3     1  UNL1       -0.3825
     15 H          65.3500   96.2035    9.6759 H       1  UNL1        0.2104
     16 C          67.1134   94.2994    9.8620 C.3     1  UNL1        0.0987
     17 N          68.0570   93.1890   10.2179 N.3     1  UNL1       -0.2943
     18 C          68.7082   92.3819    9.1342 C.3     1  UNL1        0.0859
     19 H          67.5346   92.5338   10.7995 H       1  UNL1        0.1234
     20 C          61.1291   88.3504    9.9991 C.ar    1  UNL1        0.0257
     21 C          60.1525   89.2897    9.3558 C.ar    1  UNL1        0.1398
     22 F          59.7973   89.1262    7.9076 F       1  UNL1       -0.2042
     23 C          59.5309   90.3925   10.1606 C.ar    1  UNL1        0.0296
     24 C          59.8861   90.5559   11.6087 C.ar    1  UNL1        0.0021
     25 C          60.8628   89.6166   12.2520 C.ar    1  UNL1       -0.0019
     26 C          61.4843   88.5139   11.4472 C.ar    1  UNL1        0.0039
     27 C          61.5292   85.3371    7.4477 C.ar    1  UNL1       -0.0222
     28 C          62.9935   85.0422    7.5846 C.ar    1  UNL1       -0.0043
     29 C          63.8364   85.8501    8.5264 C.ar    1  UNL1       -0.0003
     30 C          63.2149   86.9528    9.3312 C.ar    1  UNL1        0.0000
     31 C          61.7506   87.2477    9.1943 C.ar    1  UNL1        0.0016
     32 C          60.9078   86.4398    8.2525 C.ar    1  UNL1       -0.0042
     33 C          61.3150   83.8699    5.3143 C.3     1  UNL1        0.0050
     34 C          60.6863   84.5292    6.5059 C.3     1  UNL1        0.0264
     35 C          61.6332   86.4068   11.6424 C.3     1  UNL1        0.0330
     36 C          61.9070   85.0383   12.1921 C.3     1  UNL1        0.0241
     37 C          62.5691   84.0031   11.3319 C.3     1  UNL1        0.0928
     38 N          62.6358   82.5769   11.7917 N.am    1  UNL1       -0.2707
     39 C          63.5607   82.1912   12.9078 C.2     1  UNL1        0.4017
     40 O          64.4190   83.2318   13.5641 O.2     1  UNL1       -0.2264
     41 H          62.0725   81.8939   11.3610 H       1  UNL1        0.1527
     42 O          63.6275   80.7650   13.3677 O.3     1  UNL1       -0.4306
     43 C          62.3945   79.9110   13.3444 C.3     1  UNL1        0.2573
@<TRIPOS>BOND
     1    33    34    1
     2    34    27    1
     3    27    28   ar
     4    28    29   ar
     5    29    30   ar
     6    30    31   ar
     7    31    20    1
     8    20    21   ar
     9    21    22    1
    10    21    23   ar
    11    23    24   ar
    12    24    25   ar
    13    25    26   ar
    14    26     1    1
    15     1     2    1
    16     1    35    1
    17    35    36    1
    18    36    37    1
    19    37    38    1
    20    38    39   am
    21    39    40    2
    22    39    42    1
    23    42    43    1
    24     4     1    1
    25     4     5    1
    26     5     6    1
    27     6     7    1
    28     7     8    1
    29     8     9   am
    30     9    10    2
    31     9    12    1
    32    12    13    1
    33    13    14    1
    34    13    16    1
    35    16    17    1
    36    17    18    1
    37     8    11    1
    38    31    32   ar
    39    32    27   ar
    40    26    20   ar
    41    11     4    1
    42     2     3    1
    43    38    41    1
    44    14    15    1
    45    17    19    1
@<TRIPOS>MOLECULE
*****
 43 45 0 0 0
SMALL
GASTEIGER

@<TRIPOS>ATOM
      1 C          62.4317   86.9116   12.2035 C.3     1  UNL1        0.1086
      2 O          63.4276   86.8010   13.3196 O.3     1  UNL1       -0.3826
      3 H          63.3448   85.9317   13.7419 H       1  UNL1        0.2107
      4 C          62.9196   88.2984   11.9056 C.3     1  UNL1        0.0485
      5 C          62.6637   88.9106   10.5603 C.3     1  UNL1        0.0061
      6 C          63.1516   90.2975   10.2624 C.3     1  UNL1        0.0217
      7 C          63.8954   91.0720   11.3098 C.3     1  UNL1        0.0934
      8 N          64.1513   90.4597   12.6550 N.am    1  UNL1       -0.2794
      9 C          64.8951   91.2343   13.7023 C.2     1  UNL1        0.2281
     10 O          65.1509   90.6220   15.0476 O.2     1  UNL1       -0.2748
     11 C          63.6634   89.0729   12.9529 C.3     1  UNL1        0.0960
     12 C          65.3830   92.6211   13.4044 C.3     1  UNL1        0.1158
     13 C          66.7612   92.8282   12.8499 C.3     1  UNL1        0.1353
     14 O          67.0027   93.8897   11.8180 O.3     1  UNL1       -0.3825
     15 H          67.9400   93.8907   11.5684 H       1  UNL1        0.2104
     16 C          67.8980   91.9738   13.3273 C.3     1  UNL1        0.0987
     17 N          67.9921   91.5909   14.7745 N.3     1  UNL1       -0.2943
     18 C          68.3882   92.6145   15.7969 C.3     1  UNL1        0.0859
     19 H          68.6740   90.8348   14.8353 H       1  UNL1        0.1234
     20 C          61.4047   85.9849   10.0042 C.ar    1  UNL1        0.0257
     21 C          60.4088   86.0955    8.8881 C.ar    1  UNL1        0.1398
     22 F          60.3778   85.0582    7.8050 F       1  UNL1       -0.2042
     23 C          59.4439   87.2435    8.8548 C.ar    1  UNL1        0.0296
     24 C          59.4749   88.2809    9.9378 C.ar    1  UNL1        0.0021
     25 C          60.4709   88.1702   11.0541 C.ar    1  UNL1       -0.0019
     26 C          61.4357   87.0223   11.0872 C.ar    1  UNL1        0.0039
     27 C          63.0218   82.4697   10.8867 C.ar    1  UNL1       -0.0222
     28 C          64.2993   82.5409   10.1039 C.ar    1  UNL1       -0.0043
     29 C          64.6120   83.7601    9.2879 C.ar    1  UNL1       -0.0003
     30 C          63.6471   84.9080    9.2547 C.ar    1  UNL1        0.0000
     31 C          62.3696   84.8369   10.0375 C.ar    1  UNL1        0.0016
     32 C          62.0569   83.6177   10.8535 C.ar    1  UNL1       -0.0042
     33 C          63.3899   81.0363   13.0220 C.3     1  UNL1        0.0050
     34 C          62.7091   81.2506   11.7027 C.3     1  UNL1        0.0264
     35 C          61.9438   85.5248   12.5014 C.3     1  UNL1        0.0330
     36 C          62.7380   84.6282   13.4043 C.3     1  UNL1        0.0241
     37 C          62.1506   84.1609   14.7029 C.3     1  UNL1        0.0928
     38 N          61.9212   85.1386   15.8172 N.am    1  UNL1       -0.2707
     39 C          63.0833   85.8592   16.4337 C.2     1  UNL1        0.4017
     40 O          64.4749   85.6023   15.9360 O.2     1  UNL1       -0.2264
     41 H          61.0080   85.3072   16.1439 H       1  UNL1        0.1527
     42 O          62.8540   86.8369   17.5480 O.3     1  UNL1       -0.4306
     43 C          63.0383   88.3059   17.3067 C.3     1  UNL1        0.2573
@<TRIPOS>BOND
     1    33    34    1
     2    34    27    1
     3    27    28   ar
     4    28    29   ar
     5    29    30   ar
     6    30    31   ar
     7    31    20    1
     8    20    21   ar
     9    21    22    1
    10    21    23   ar
    11    23    24   ar
    12    24    25   ar
    13    25    26   ar
    14    26     1    1
    15     1     2    1
    16     1    35    1
    17    35    36    1
    18    36    37    1
    19    37    38    1
    20    38    39   am
    21    39    40    2
    22    39    42    1
    23    42    43    1
    24     4     1    1
    25     4     5    1
    26     5     6    1
    27     6     7    1
    28     7     8    1
    29     8     9   am
    30     9    10    2
    31     9    12    1
    32    12    13    1
    33    13    14    1
    34    13    16    1
    35    16    17    1
    36    17    18    1
    37     8    11    1
    38    31    32   ar
    39    32    27   ar
    40    26    20   ar
    41    11     4    1
    42     2     3    1
    43    38    41    1
    44    14    15    1
    45    17    19    1
@<TRIPOS>MOLECULE
*****
 43 45 0 0 0
SMALL
GASTEIGER

@<TRIPOS>ATOM
      1 C          62.6446   87.4837   12.2494 C.3     1  UNL1        0.1086
      2 O          63.8861   87.3381   13.0786 O.3     1  UNL1       -0.3826
      3 H          63.8823   86.4729   13.5172 H       1  UNL1        0.2107
      4 C          63.0897   88.8512   11.8232 C.3     1  UNL1        0.0485
      5 C          62.6812   89.3894   10.4840 C.3     1  UNL1        0.0061
      6 C          63.1263   90.7570   10.0578 C.3     1  UNL1        0.0217
      7 C          63.9797   91.5864   10.9708 C.3     1  UNL1        0.0934
      8 N          64.3882   91.0482   12.3101 N.am    1  UNL1       -0.2794
      9 C          65.2417   91.8777   13.2231 C.2     1  UNL1        0.2281
     10 O          65.6501   91.3395   14.5624 O.2     1  UNL1       -0.2748
     11 C          63.9432   89.6807   12.7363 C.3     1  UNL1        0.0960
     12 C          65.6867   93.2453   12.7969 C.3     1  UNL1        0.1158
     13 C          66.7479   93.3955   11.7476 C.3     1  UNL1        0.1353
     14 O          67.8416   92.3751   11.6355 O.3     1  UNL1       -0.3825
     15 H          68.4395   92.6201   10.9120 H       1  UNL1        0.2104
     16 C          66.7154   94.5661   10.8101 C.3     1  UNL1        0.0987
     17 N          67.7240   94.6700    9.7048 N.3     1  UNL1       -0.2943
     18 C          67.3429   95.3016    8.3987 C.3     1  UNL1        0.0859
     19 H          68.0293   93.7198    9.4945 H       1  UNL1        0.1234
     20 C          61.1551   86.6974   10.2712 C.ar    1  UNL1        0.0257
     21 C          59.9137   86.8430    9.4420 C.ar    1  UNL1        0.1398
     22 F          59.6657   85.9111    8.2931 F       1  UNL1       -0.2042
     23 C          58.9202   87.9205    9.7617 C.ar    1  UNL1        0.0296
     24 C          59.1683   88.8524   10.9106 C.ar    1  UNL1        0.0021
     25 C          60.4098   88.7067   11.7399 C.ar    1  UNL1       -0.0019
     26 C          61.4031   87.6293   11.4202 C.ar    1  UNL1        0.0039
     27 C          63.3074   83.3756   10.5599 C.ar    1  UNL1       -0.0222
     28 C          64.1353   83.4650    9.3123 C.ar    1  UNL1       -0.0043
     29 C          63.9698   84.6318    8.3843 C.ar    1  UNL1       -0.0003
     30 C          62.9764   85.7093    8.7039 C.ar    1  UNL1        0.0000
     31 C          62.1486   85.6199    9.9515 C.ar    1  UNL1        0.0016
     32 C          62.3140   84.4531   10.8795 C.ar    1  UNL1       -0.0042
     33 C          62.3662   81.8364   12.4294 C.3     1  UNL1        0.0050
     34 C          63.4729   82.2088   11.4879 C.3     1  UNL1        0.0264
     35 C          62.1996   86.1161   12.6756 C.3     1  UNL1        0.0330
     36 C          63.1371   85.2252   13.4354 C.3     1  UNL1        0.0241
     37 C          63.1030   85.2053   14.9349 C.3     1  UNL1        0.0928
     38 N          63.5368   86.4133   15.7111 N.am    1  UNL1       -0.2707
     39 C          62.6829   86.9324   16.8298 C.2     1  UNL1        0.4017
     40 O          61.3953   86.2434   17.1723 O.2     1  UNL1       -0.2264
     41 H          64.3819   86.8655   15.4862 H       1  UNL1        0.1527
     42 O          63.1167   88.1404   17.6059 O.3     1  UNL1       -0.4306
     43 C          63.2093   89.4748   16.9269 C.3     1  UNL1        0.2573
@<TRIPOS>BOND
     1    33    34    1
     2    34    27    1
     3    27    28   ar
     4    28    29   ar
     5    29    30   ar
     6    30    31   ar
     7    31    20    1
     8    20    21   ar
     9    21    22    1
    10    21    23   ar
    11    23    24   ar
    12    24    25   ar
    13    25    26   ar
    14    26     1    1
    15     1     2    1
    16     1    35    1
    17    35    36    1
    18    36    37    1
    19    37    38    1
    20    38    39   am
    21    39    40    2
    22    39    42    1
    23    42    43    1
    24     4     1    1
    25     4     5    1
    26     5     6    1
    27     6     7    1
    28     7     8    1
    29     8     9   am
    30     9    10    2
    31     9    12    1
    32    12    13    1
    33    13    14    1
    34    13    16    1
    35    16    17    1
    36    17    18    1
    37     8    11    1
    38    31    32   ar
    39    32    27   ar
    40    26    20   ar
    41    11     4    1
    42     2     3    1
    43    38    41    1
    44    14    15    1
    45    17    19    1
@<TRIPOS>MOLECULE
*****
 43 45 0 0 0
SMALL
GASTEIGER

@<TRIPOS>ATOM
      1 C          62.2226   90.0389   12.0504 C.3     1  UNL1        0.1086
      2 O          61.5881   90.7521   10.8933 O.3     1  UNL1       -0.3826
      3 H          60.7381   90.3348   10.6831 H       1  UNL1        0.2107
      4 C          63.3925   90.9754   11.9861 C.3     1  UNL1        0.0485
      5 C          63.9226   91.4233   10.6563 C.3     1  UNL1        0.0061
      6 C          65.0925   92.3598   10.5921 C.3     1  UNL1        0.0217
      7 C          65.7324   92.8485   11.8576 C.3     1  UNL1        0.0934
      8 N          65.2024   92.4007   13.1875 N.am    1  UNL1       -0.2794
      9 C          65.8423   92.8894   14.4531 C.2     1  UNL1        0.2281
     10 O          65.3122   92.4416   15.7829 O.2     1  UNL1       -0.2748
     11 C          64.0324   91.4642   13.2517 C.3     1  UNL1        0.0960
     12 C          67.0122   93.8259   14.3888 C.3     1  UNL1        0.1158
     13 C          68.2548   93.5288   15.1747 C.3     1  UNL1        0.1353
     14 O          68.7621   94.5207   16.1791 O.3     1  UNL1       -0.3825
     15 H          69.5676   94.1762   16.5954 H       1  UNL1        0.2104
     16 C          68.9901   92.2397   14.9563 C.3     1  UNL1        0.0987
     17 N          69.7248   92.0040   13.6700 N.3     1  UNL1       -0.2943
     18 C          68.9767   91.5521   12.4510 C.3     1  UNL1        0.0859
     19 H          70.4326   91.2948   13.8609 H       1  UNL1        0.1234
     20 C          63.2641   87.8885   13.0708 C.ar    1  UNL1        0.0257
     21 C          63.8986   87.1754   14.2278 C.ar    1  UNL1        0.1398
     22 F          64.3056   85.7381   14.0911 F       1  UNL1       -0.2042
     23 C          64.1261   87.8995   15.5217 C.ar    1  UNL1        0.0296
     24 C          63.7191   89.3367   15.6585 C.ar    1  UNL1        0.0021
     25 C          63.0846   90.0498   14.5013 C.ar    1  UNL1       -0.0019
     26 C          62.8571   89.3258   13.2075 C.ar    1  UNL1        0.0039
     27 C          62.8103   84.9407   10.4527 C.ar    1  UNL1       -0.0222
     28 C          62.5816   85.7163    9.1894 C.ar    1  UNL1       -0.0043
     29 C          62.5804   87.2160    9.2198 C.ar    1  UNL1       -0.0003
     30 C          62.8079   87.9401   10.5136 C.ar    1  UNL1        0.0000
     31 C          63.0366   87.1645   11.7769 C.ar    1  UNL1        0.0016
     32 C          63.0378   85.6648   11.7465 C.ar    1  UNL1       -0.0042
     33 C          62.6702   82.6648   11.6980 C.3     1  UNL1        0.0050
     34 C          62.8114   83.4410   10.4223 C.3     1  UNL1        0.0264
     35 C          61.0527   89.1024   12.1147 C.3     1  UNL1        0.0330
     36 C          59.7943   89.4216   11.3632 C.3     1  UNL1        0.0241
     37 C          59.4567   88.6677   10.1112 C.3     1  UNL1        0.0928
     38 N          59.6953   89.2958    8.7701 N.am    1  UNL1       -0.2707
     39 C          59.2888   88.5729    7.5203 C.2     1  UNL1        0.4017
     40 O          58.6436   87.2217    7.6116 O.2     1  UNL1       -0.2264
     41 H          60.1187   90.1826    8.7102 H       1  UNL1        0.1527
     42 O          59.5274   89.2010    6.1792 O.3     1  UNL1       -0.4306
     43 C          58.8680   90.5031    5.8329 C.3     1  UNL1        0.2573
@<TRIPOS>BOND
     1    33    34    1
     2    34    27    1
     3    27    28   ar
     4    28    29   ar
     5    29    30   ar
     6    30    31   ar
     7    31    20    1
     8    20    21   ar
     9    21    22    1
    10    21    23   ar
    11    23    24   ar
    12    24    25   ar
    13    25    26   ar
    14    26     1    1
    15     1     2    1
    16     1    35    1
    17    35    36    1
    18    36    37    1
    19    37    38    1
    20    38    39   am
    21    39    40    2
    22    39    42    1
    23    42    43    1
    24     4     1    1
    25     4     5    1
    26     5     6    1
    27     6     7    1
    28     7     8    1
    29     8     9   am
    30     9    10    2
    31     9    12    1
    32    12    13    1
    33    13    14    1
    34    13    16    1
    35    16    17    1
    36    17    18    1
    37     8    11    1
    38    31    32   ar
    39    32    27   ar
    40    26    20   ar
    41    11     4    1
    42     2     3    1
    43    38    41    1
    44    14    15    1
    45    17    19    1
@<TRIPOS>MOLECULE
*****
 43 45 0 0 0
SMALL
GASTEIGER

@<TRIPOS>ATOM
      1 C          62.5519   89.2922   10.5505 C.3     1  UNL1        0.1086
      2 O          63.6208   89.3197    9.4985 O.3     1  UNL1       -0.3826
      3 H          63.8221   90.2397    9.2661 H       1  UNL1        0.2107
      4 C          62.5996   87.7930   10.5598 C.3     1  UNL1        0.0485
      5 C          62.5051   87.0316    9.2708 C.3     1  UNL1        0.0061
      6 C          62.5529   85.5323    9.2802 C.3     1  UNL1        0.0217
      7 C          62.6950   84.7946   10.5784 C.3     1  UNL1        0.0934
      8 N          62.7895   85.5560   11.8673 N.am    1  UNL1       -0.2794
      9 C          62.9317   84.8181   13.1656 C.2     1  UNL1        0.2281
     10 O          63.0262   85.5795   14.4545 O.2     1  UNL1       -0.2748
     11 C          62.7418   87.0552   11.8580 C.3     1  UNL1        0.0960
     12 C          62.9794   83.3189   13.1749 C.3     1  UNL1        0.1158
     13 C          62.4256   82.5582   14.3430 C.3     1  UNL1        0.1353
     14 O          62.7318   83.0046   15.7419 O.3     1  UNL1       -0.3825
     15 H          62.3001   82.4081   16.3734 H       1  UNL1        0.2104
     16 C          61.5656   81.3510   14.1122 C.3     1  UNL1        0.0987
     17 N          62.1793   80.0778   13.6101 N.3     1  UNL1       -0.2943
     18 C          62.6876   79.9949   12.2013 C.3     1  UNL1        0.0859
     19 H          61.4719   79.3500   13.7112 H       1  UNL1        0.1234
     20 C          60.0820   88.8715   11.2381 C.ar    1  UNL1        0.0257
     21 C          59.0131   88.8439   12.2900 C.ar    1  UNL1        0.1398
     22 F          57.6121   88.4507   11.9256 F       1  UNL1       -0.2042
     23 C          59.3450   89.2095   13.7064 C.ar    1  UNL1        0.0296
     24 C          60.7460   89.6027   14.0708 C.ar    1  UNL1        0.0021
     25 C          61.8149   89.6303   13.0188 C.ar    1  UNL1       -0.0019
     26 C          61.4829   89.2646   11.6025 C.ar    1  UNL1        0.0039
     27 C          59.5314   89.1685    7.3190 C.ar    1  UNL1       -0.0222
     28 C          59.0861   87.7747    6.9889 C.ar    1  UNL1       -0.0043
     29 C          58.9728   86.7465    8.0752 C.ar    1  UNL1       -0.0003
     30 C          59.3047   87.1120    9.4915 C.ar    1  UNL1        0.0000
     31 C          59.7500   88.5058    9.8216 C.ar    1  UNL1        0.0016
     32 C          59.8634   89.5341    8.7354 C.ar    1  UNL1       -0.0042
     33 C          58.4078   90.7312    5.5740 C.3     1  UNL1        0.0050
     34 C          59.6448   90.1967    6.2328 C.3     1  UNL1        0.0264
     35 C          62.5042   90.7914   10.5412 C.3     1  UNL1        0.0330
     36 C          63.6571   91.5751    9.9875 C.3     1  UNL1        0.0241
     37 C          64.5877   92.2974   10.9160 C.3     1  UNL1        0.0928
     38 N          65.3396   93.5033   10.4358 N.am    1  UNL1       -0.2707
     39 C          66.8338   93.5532   10.5580 C.2     1  UNL1        0.4017
     40 O          67.5761   92.3972   11.1603 O.2     1  UNL1       -0.2264
     41 H          64.8524   94.2620   10.0405 H       1  UNL1        0.1527
     42 O          67.5857   94.7591   10.0779 O.3     1  UNL1       -0.4306
     43 C          66.8873   96.0817    9.9630 C.3     1  UNL1        0.2573
@<TRIPOS>BOND
     1    33    34    1
     2    34    27    1
     3    27    28   ar
     4    28    29   ar
     5    29    30   ar
     6    30    31   ar
     7    31    20    1
     8    20    21   ar
     9    21    22    1
    10    21    23   ar
    11    23    24   ar
    12    24    25   ar
    13    25    26   ar
    14    26     1    1
    15     1     2    1
    16     1    35    1
    17    35    36    1
    18    36    37    1
    19    37    38    1
    20    38    39   am
    21    39    40    2
    22    39    42    1
    23    42    43    1
    24     4     1    1
    25     4     5    1
    26     5     6    1
    27     6     7    1
    28     7     8    1
    29     8     9   am
    30     9    10    2
    31     9    12    1
    32    12    13    1
    33    13    14    1
    34    13    16    1
    35    16    17    1
    36    17    18    1
    37     8    11    1
    38    31    32   ar
    39    32    27   ar
    40    26    20   ar
    41    11     4    1
    42     2     3    1
    43    38    41    1
    44    14    15    1
    45    17    19    1
@<TRIPOS>MOLECULE
*****
 43 45 0 0 0
SMALL
GASTEIGER

@<TRIPOS>ATOM
      1 C          62.6546   87.1085   10.8595 C.3     1  UNL1        0.1086
      2 O          63.3720   87.5021   12.1167 O.3     1  UNL1       -0.3826
      3 H          63.4396   88.4687   12.1612 H       1  UNL1        0.2107
      4 C          62.7973   85.6622   11.2309 C.3     1  UNL1        0.0485
      5 C          63.3304   84.6800   10.2304 C.3     1  UNL1        0.0061
      6 C          63.4731   83.2337   10.6018 C.3     1  UNL1        0.0217
      7 C          63.0828   82.7697   11.9738 C.3     1  UNL1        0.0934
      8 N          62.5497   83.7519   12.9743 N.am    1  UNL1       -0.2794
      9 C          62.1594   83.2878   14.3463 C.2     1  UNL1        0.2281
     10 O          61.6263   84.2700   15.3469 O.2     1  UNL1       -0.2748
     11 C          62.4070   85.1981   12.6029 C.3     1  UNL1        0.0960
     12 C          62.3021   81.8416   14.7177 C.3     1  UNL1        0.1158
     13 C          61.4620   80.8049   14.0326 C.3     1  UNL1        0.1353
     14 O          62.1095   79.5939   13.4290 O.3     1  UNL1       -0.3825
     15 H          61.4297   79.0293   13.0290 H       1  UNL1        0.2104
     16 C          59.9744   80.9792   13.9509 C.3     1  UNL1        0.0987
     17 N          59.0701   80.0916   14.7536 N.3     1  UNL1       -0.2943
     18 C          58.9165   78.6461   14.3837 C.3     1  UNL1        0.0859
     19 H          58.1390   80.5063   14.7135 H       1  UNL1        0.1234
     20 C          60.6315   87.3633    9.2495 C.ar    1  UNL1        0.0257
     21 C          59.9141   86.9697    7.9924 C.ar    1  UNL1        0.1398
     22 F          58.6084   87.6182    7.6395 F       1  UNL1       -0.2042
     23 C          60.5025   85.9274    7.0881 C.ar    1  UNL1        0.0296
     24 C          61.8082   85.2789    7.4409 C.ar    1  UNL1        0.0021
     25 C          62.5255   85.6726    8.6981 C.ar    1  UNL1       -0.0019
     26 C          61.9372   86.7148    9.6023 C.ar    1  UNL1        0.0039
     27 C          58.7522   89.0372   12.3181 C.ar    1  UNL1       -0.0222
     28 C          58.8666   90.4898   11.9624 C.ar    1  UNL1       -0.0043
     29 C          59.5693   90.9004   10.7023 C.ar    1  UNL1       -0.0003
     30 C          60.1576   89.8582    9.7981 C.ar    1  UNL1        0.0000
     31 C          60.0432   88.4056   10.1538 C.ar    1  UNL1        0.0016
     32 C          59.3405   87.9950   11.4138 C.ar    1  UNL1       -0.0042
     33 C          56.6536   88.0813   13.5148 C.3     1  UNL1        0.0050
     34 C          58.0495   88.6266   13.5781 C.3     1  UNL1        0.0264
     35 C          62.5119   88.5547   10.4881 C.3     1  UNL1        0.0330
     36 C          63.4428   89.5748   11.0736 C.3     1  UNL1        0.0241
     37 C          62.9276   90.5831   12.0574 C.3     1  UNL1        0.0928
     38 N          62.2442   90.1257   13.3119 N.am    1  UNL1       -0.2707
     39 C          63.0360   89.9401   14.5723 C.2     1  UNL1        0.4017
     40 O          64.5112   90.2119   14.5782 O.2     1  UNL1       -0.2264
     41 H          61.2760   89.9474   13.3081 H       1  UNL1        0.1527
     42 O          62.3527   89.4827   15.8268 O.3     1  UNL1       -0.4306
     43 C          63.1551   88.8756   16.9393 C.3     1  UNL1        0.2573
@<TRIPOS>BOND
     1    33    34    1
     2    34    27    1
     3    27    28   ar
     4    28    29   ar
     5    29    30   ar
     6    30    31   ar
     7    31    20    1
     8    20    21   ar
     9    21    22    1
    10    21    23   ar
    11    23    24   ar
    12    24    25   ar
    13    25    26   ar
    14    26     1    1
    15     1     2    1
    16     1    35    1
    17    35    36    1
    18    36    37    1
    19    37    38    1
    20    38    39   am
    21    39    40    2
    22    39    42    1
    23    42    43    1
    24     4     1    1
    25     4     5    1
    26     5     6    1
    27     6     7    1
    28     7     8    1
    29     8     9   am
    30     9    10    2
    31     9    12    1
    32    12    13    1
    33    13    14    1
    34    13    16    1
    35    16    17    1
    36    17    18    1
    37     8    11    1
    38    31    32   ar
    39    32    27   ar
    40    26    20   ar
    41    11     4    1
    42     2     3    1
    43    38    41    1
    44    14    15    1
    45    17    19    1
@<TRIPOS>MOLECULE
*****
 43 45 0 0 0
SMALL
GASTEIGER

@<TRIPOS>ATOM
      1 C          62.3816   89.4574   10.5668 C.3     1  UNL1        0.1086
      2 O          63.5881   89.5084    9.6770 O.3     1  UNL1       -0.3826
      3 H          63.9171   90.4196    9.6303 H       1  UNL1        0.2107
      4 C          62.2684   87.9808   10.3288 C.3     1  UNL1        0.0485
      5 C          61.8540   87.4678    8.9815 C.3     1  UNL1        0.0061
      6 C          61.7408   85.9911    8.7435 C.3     1  UNL1        0.0217
      7 C          62.0420   85.0274    9.8528 C.3     1  UNL1        0.0934
      8 N          62.4564   85.5404   11.2001 N.am    1  UNL1       -0.2794
      9 C          62.7575   84.5766   12.3095 C.2     1  UNL1        0.2281
     10 O          63.1719   85.0896   13.6567 O.2     1  UNL1       -0.2748
     11 C          62.5696   87.0170   11.4381 C.3     1  UNL1        0.0960
     12 C          62.6443   83.1000   12.0715 C.3     1  UNL1        0.1158
     13 C          63.7107   82.1748   12.5781 C.3     1  UNL1        0.1353
     14 O          65.1177   82.3047   12.0745 O.3     1  UNL1       -0.3825
     15 H          65.6765   81.6356   12.4999 H       1  UNL1        0.2104
     16 C          63.3702   81.1196   13.5884 C.3     1  UNL1        0.0987
     17 N          62.2219   81.3265   14.5310 N.3     1  UNL1       -0.2943
     18 C          60.8611   80.8011   14.1819 C.3     1  UNL1        0.0859
     19 H          62.1246   82.3336   14.6600 H       1  UNL1        0.1234
     20 C          61.3384   89.4731   12.9462 C.ar    1  UNL1        0.0257
     21 C          60.1320   89.4222   13.8360 C.ar    1  UNL1        0.1398
     22 F          60.2953   89.4888   15.3256 F       1  UNL1       -0.2042
     23 C          58.7621   89.3045   13.2363 C.ar    1  UNL1        0.0296
     24 C          58.5987   89.2379   11.7467 C.ar    1  UNL1        0.0021
     25 C          59.8052   89.2889   10.8568 C.ar    1  UNL1       -0.0019
     26 C          61.1751   89.4065   11.4566 C.ar    1  UNL1        0.0039
     27 C          64.7357   91.0521   14.2560 C.ar    1  UNL1       -0.0222
     28 C          65.4480   89.8260   14.7453 C.ar    1  UNL1       -0.0043
     29 C          64.7904   88.4824   14.6350 C.ar    1  UNL1       -0.0003
     30 C          63.4206   88.3647   14.0353 C.ar    1  UNL1        0.0000
     31 C          62.7083   89.5907   13.5459 C.ar    1  UNL1        0.0016
     32 C          63.3659   90.9344   13.6563 C.ar    1  UNL1       -0.0042
     33 C          66.6856   92.5391   15.1142 C.3     1  UNL1        0.0050
     34 C          65.3933   92.3957   14.3663 C.3     1  UNL1        0.0264
     35 C          62.4948   90.9341   10.8047 C.3     1  UNL1        0.0330
     36 C          63.5310   91.7345   10.0728 C.3     1  UNL1        0.0241
     37 C          64.5549   92.5167   10.8407 C.3     1  UNL1        0.0928
     38 N          66.0006   92.4494   10.4466 N.am    1  UNL1       -0.2707
     39 C          66.8155   93.7062   10.3669 C.2     1  UNL1        0.4017
     40 O          66.1846   95.0304   10.6812 O.2     1  UNL1       -0.2264
     41 H          66.4147   91.5804   10.2403 H       1  UNL1        0.1527
     42 O          68.2612   93.6389    9.9727 O.3     1  UNL1       -0.4306
     43 C          68.7611   92.4900    9.1480 C.3     1  UNL1        0.2573
@<TRIPOS>BOND
     1    33    34    1
     2    34    27    1
     3    27    28   ar
     4    28    29   ar
     5    29    30   ar
     6    30    31   ar
     7    31    20    1
     8    20    21   ar
     9    21    22    1
    10    21    23   ar
    11    23    24   ar
    12    24    25   ar
    13    25    26   ar
    14    26     1    1
    15     1     2    1
    16     1    35    1
    17    35    36    1
    18    36    37    1
    19    37    38    1
    20    38    39   am
    21    39    40    2
    22    39    42    1
    23    42    43    1
    24     4     1    1
    25     4     5    1
    26     5     6    1
    27     6     7    1
    28     7     8    1
    29     8     9   am
    30     9    10    2
    31     9    12    1
    32    12    13    1
    33    13    14    1
    34    13    16    1
    35    16    17    1
    36    17    18    1
    37     8    11    1
    38    31    32   ar
    39    32    27   ar
    40    26    20   ar
    41    11     4    1
    42     2     3    1
    43    38    41    1
    44    14    15    1
    45    17    19    1
