@<TRIPOS>MOLECULE
*****
 39 42 0 0 0
SMALL
GASTEIGER

@<TRIPOS>ATOM
      1 C          60.5328   90.5194   11.9293 C.3     1  UNL1        0.0265
      2 C          61.9236   89.9644   11.8419 C.3     1  UNL1        0.1011
      3 N          63.1033   90.8906   11.8601 N.am    1  UNL1       -0.2438
      4 C          63.5925   91.5072   10.5833 C.3     1  UNL1        0.1009
      5 C          64.7722   92.4335   10.6015 C.3     1  UNL1        0.0662
      6 C          65.4627   92.7432   11.8966 C.3     1  UNL1        0.1600
      7 O          64.9735   92.1266   13.1736 O.3     1  UNL1       -0.4374
      8 C          63.7938   91.2003   13.1553 C.2     1  UNL1        0.4051
      9 O          63.3045   90.5837   14.4322 O.2     1  UNL1       -0.2262
     10 C          66.2917   93.5667   10.9560 C.ar    1  UNL1        0.0138
     11 C          67.1835   92.8926    9.9558 C.ar    1  UNL1       -0.0010
     12 C          68.0125   93.7161    9.0152 C.ar    1  UNL1       -0.0002
     13 C          67.9498   95.2136    9.0750 C.ar    1  UNL1       -0.0000
     14 C          67.0580   95.8876   10.0752 C.ar    1  UNL1       -0.0002
     15 C          66.2290   95.0641   11.0158 C.ar    1  UNL1       -0.0010
     16 C          66.4411   93.3389   12.8651 C.3     1  UNL1        0.0714
     17 C          67.1109   92.4676   13.8859 C.3     1  UNL1        0.0922
     18 C          66.4076   93.2114   14.9823 C.3     1  UNL1        0.0294
     19 C          67.8143   91.7238   12.7896 C.3     1  UNL1        0.0294
     20 O          67.7808   91.5964   14.9068 O.3     1  UNL1       -0.3866
     21 H          67.4963   91.8621   15.7953 H       1  UNL1        0.2102
     22 C          62.1347   88.4830   11.7363 C.ar    1  UNL1       -0.0042
     23 C          61.3644   87.6858   10.7259 C.ar    1  UNL1       -0.0026
     24 C          61.5756   86.2045   10.6203 C.ar    1  UNL1        0.0013
     25 C          62.5570   85.5205   11.5252 C.ar    1  UNL1        0.0193
     26 C          63.3273   86.3177   12.5356 C.ar    1  UNL1        0.0013
     27 C          63.1162   87.7990   12.6412 C.ar    1  UNL1       -0.0026
     28 C          62.7681   84.0391   11.4196 C.ar    1  UNL1        0.1011
     29 C          63.2764   83.4433   10.1404 C.ar    1  UNL1        0.0258
     30 C          63.4876   81.9619   10.0348 C.ar    1  UNL1        0.0638
     31 C          63.1904   81.0765   11.2085 C.ar    1  UNL1        0.2767
     32 O          63.4015   79.5952   11.1029 O.2     1  UNL1       -0.2655
     33 N          62.6820   81.6724   12.4878 N.ar    1  UNL1       -0.2078
     34 N          62.4709   83.1536   12.5933 N.ar    1  UNL1       -0.1666
     35 C          62.3848   80.7869   13.6615 C.3     1  UNL1        0.2334
     36 C          60.9679   80.5893   14.1122 C.3     1  UNL1        0.4201
     37 F          59.5508   80.3917   14.5628 F       1  UNL1       -0.1679
     38 F          60.9543   81.9782   14.6785 F       1  UNL1       -0.1679
     39 F          60.9814   79.2004   13.5458 F       1  UNL1       -0.1679
@<TRIPOS>BOND
     1     2     1    1
     2     2    22    1
     3    22    23   ar
     4    23    24   ar
     5    24    25   ar
     6    25    28    1
     7    28    29   ar
     8    29    30   ar
     9    30    31   ar
    10    31    32    2
    11    31    33   ar
    12    33    35    1
    13    35    36    1
    14    36    37    1
    15    36    38    1
    16    36    39    1
    17    33    34   ar
    18    25    26   ar
    19    26    27   ar
    20     2     3    1
    21     3     4    1
    22     4     5    1
    23     5     6    1
    24     6    16    1
    25    16    17    1
    26    17    18    1
    27    17    19    1
    28    17    20    1
    29     6    10    1
    30    10    11   ar
    31    11    12   ar
    32    12    13   ar
    33    13    14   ar
    34    14    15   ar
    35     6     7    1
    36     7     8    1
    37     8     9    2
    38    27    22   ar
    39     8     3   am
    40    34    28   ar
    41    15    10   ar
    42    20    21    1
@<TRIPOS>MOLECULE
*****
 39 42 0 0 0
SMALL
GASTEIGER

@<TRIPOS>ATOM
      1 C          60.9917   90.3957   11.3501 C.3     1  UNL1        0.0265
      2 C          62.3096   89.7385   11.6352 C.3     1  UNL1        0.1011
      3 N          63.5072   90.5755   11.9743 N.am    1  UNL1       -0.2438
      4 C          64.1937   90.4015   13.2966 C.3     1  UNL1        0.1009
      5 C          65.3914   91.2385   13.6358 C.3     1  UNL1        0.0662
      6 C          65.9026   92.2495   12.6527 C.3     1  UNL1        0.1600
      7 O          65.2161   92.4236   11.3304 O.3     1  UNL1       -0.4374
      8 C          64.0184   91.5866   10.9912 C.2     1  UNL1        0.4051
      9 O          63.3319   91.7607    9.6689 O.2     1  UNL1       -0.2262
     10 C          66.8851   92.4509   13.7681 C.ar    1  UNL1        0.0138
     11 C          66.4662   93.1705   15.0158 C.ar    1  UNL1       -0.0010
     12 C          67.4487   93.3718   16.1312 C.ar    1  UNL1       -0.0002
     13 C          68.8501   92.8536   15.9989 C.ar    1  UNL1       -0.0000
     14 C          69.2690   92.1340   14.7512 C.ar    1  UNL1       -0.0002
     15 C          68.2865   91.9326   13.6358 C.ar    1  UNL1       -0.0010
     16 C          66.7550   93.3305   12.0570 C.3     1  UNL1        0.0714
     17 C          66.6213   93.6756   10.6034 C.3     1  UNL1        0.0922
     18 C          65.7843   94.8673   10.9632 C.3     1  UNL1        0.0294
     19 C          67.4583   92.4840   10.2436 C.3     1  UNL1        0.0294
     20 O          66.4876   94.0208    9.1498 O.3     1  UNL1       -0.3866
     21 H          65.9484   94.8217    9.0559 H       1  UNL1        0.2102
     22 C          62.4298   88.2443   11.5810 C.ar    1  UNL1       -0.0042
     23 C          61.8258   87.4842   10.4377 C.ar    1  UNL1       -0.0026
     24 C          61.9461   85.9900   10.3836 C.ar    1  UNL1        0.0013
     25 C          62.6704   85.2560   11.4729 C.ar    1  UNL1        0.0193
     26 C          63.2744   86.0161   12.6163 C.ar    1  UNL1        0.0013
     27 C          63.1541   87.5102   12.6704 C.ar    1  UNL1       -0.0026
     28 C          62.7906   83.7617   11.4188 C.ar    1  UNL1        0.1011
     29 C          63.2692   83.0927   10.1645 C.ar    1  UNL1        0.0258
     30 C          63.3895   81.5985   10.1104 C.ar    1  UNL1        0.0638
     31 C          63.0311   80.7733   11.3107 C.ar    1  UNL1        0.2767
     32 O          63.1514   79.2791   11.2566 O.2     1  UNL1       -0.2655
     33 N          62.5525   81.4424   12.5650 N.ar    1  UNL1       -0.2078
     34 N          62.4323   82.9365   12.6191 N.ar    1  UNL1       -0.1666
     35 C          62.1941   80.6172   13.7653 C.3     1  UNL1        0.2334
     36 C          60.7565   80.4523   14.1600 C.3     1  UNL1        0.4201
     37 F          59.3187   80.2873   14.5547 F       1  UNL1       -0.1679
     38 F          60.7280   81.8701   14.6487 F       1  UNL1       -0.1679
     39 F          60.7849   79.0344   13.6713 F       1  UNL1       -0.1679
@<TRIPOS>BOND
     1     2     1    1
     2     2    22    1
     3    22    23   ar
     4    23    24   ar
     5    24    25   ar
     6    25    28    1
     7    28    29   ar
     8    29    30   ar
     9    30    31   ar
    10    31    32    2
    11    31    33   ar
    12    33    35    1
    13    35    36    1
    14    36    37    1
    15    36    38    1
    16    36    39    1
    17    33    34   ar
    18    25    26   ar
    19    26    27   ar
    20     2     3    1
    21     3     4    1
    22     4     5    1
    23     5     6    1
    24     6    16    1
    25    16    17    1
    26    17    18    1
    27    17    19    1
    28    17    20    1
    29     6    10    1
    30    10    11   ar
    31    11    12   ar
    32    12    13   ar
    33    13    14   ar
    34    14    15   ar
    35     6     7    1
    36     7     8    1
    37     8     9    2
    38    27    22   ar
    39     8     3   am
    40    34    28   ar
    41    15    10   ar
    42    20    21    1
