@<TRIPOS>MOLECULE
*****
 25 28 0 0 0
SMALL
GASTEIGER

@<TRIPOS>ATOM
      1 N          65.1013   92.9303   11.4882 N.ar    1  UNL1       -0.3256
      2 C          64.2966   91.6954   11.2100 C.ar    1  UNL1        0.0367
      3 C          64.3589   90.8181   12.4251 C.ar    1  UNL1        0.0108
      4 C          65.2021   91.5108   13.4542 C.ar    1  UNL1        0.0145
      5 C          65.6114   91.1216   14.8438 C.ar    1  UNL1        0.0012
      6 C          66.4795   92.0377   15.6543 C.ar    1  UNL1        0.0001
      7 C          66.9383   93.3431   15.0753 C.ar    1  UNL1        0.0015
      8 C          66.5291   93.7324   13.6857 C.ar    1  UNL1        0.0172
      9 C          65.6610   92.8163   12.8752 C.ar    1  UNL1        0.0597
     10 C          63.6398   89.5018   12.4374 C.3     1  UNL1        0.1216
     11 N          62.8583   89.0628   11.2346 N.am    1  UNL1       -0.2715
     12 C          62.1391   87.7465   11.2470 C.2     1  UNL1        0.2493
     13 O          62.2014   86.8692   12.4621 O.2     1  UNL1       -0.2699
     14 C          62.7960   89.9401   10.0195 C.3     1  UNL1        0.1003
     15 C          63.5152   91.2564   10.0072 C.3     1  UNL1        0.0650
     16 C          61.3577   87.3075   10.0442 C.ar    1  UNL1        0.0536
     17 C          59.9612   87.8121    9.8319 C.ar    1  UNL1        0.0045
     18 C          59.1798   87.3731    8.6290 C.ar    1  UNL1        0.0001
     19 C          59.7950   86.4296    7.6385 C.ar    1  UNL1        0.0000
     20 C          61.1916   85.9250    7.8507 C.ar    1  UNL1        0.0001
     21 C          61.9730   86.3639    9.0536 C.ar    1  UNL1        0.0045
     22 C          65.3098   94.0779   10.5449 C.3     1  UNL1        0.1474
     23 O          67.7895   93.4219   10.1313 O.co2   1  UNL1       -0.5472
     24 C          66.6966   94.4492   10.1105 C.2     1  UNL1        0.0732
     25 O          66.9907   95.8479    9.6553 O.co2   1  UNL1       -0.5472
@<TRIPOS>UNITY_ATOM_ATTR
23 1
charge -1
@<TRIPOS>BOND
     1    23    24   ar
     2    24    25   ar
     3    24    22    1
     4    22     1    1
     5     1     2   ar
     6     2     3   ar
     7     3     4   ar
     8     4     5   ar
     9     5     6   ar
    10     6     7   ar
    11     7     8   ar
    12     8     9   ar
    13     3    10    1
    14    10    11    1
    15    11    12   am
    16    12    13    2
    17    12    16    1
    18    16    17   ar
    19    17    18   ar
    20    18    19   ar
    21    19    20   ar
    22    20    21   ar
    23    11    14    1
    24    14    15    1
    25     9     1   ar
    26    21    16   ar
    27    15     2    1
    28     9     4   ar
@<TRIPOS>MOLECULE
*****
 25 28 0 0 0
SMALL
GASTEIGER

@<TRIPOS>ATOM
      1 N          62.7200   88.9552   11.3065 N.ar    1  UNL1       -0.3256
      2 C          62.8088   87.5817   11.9029 C.ar    1  UNL1        0.0367
      3 C          63.6297   87.6724   13.1550 C.ar    1  UNL1        0.0108
      4 C          64.0483   89.1018   13.3325 C.ar    1  UNL1        0.0145
      5 C          64.8687   89.7839   14.3868 C.ar    1  UNL1        0.0012
      6 C          65.1268   91.2589   14.2987 C.ar    1  UNL1        0.0001
      7 C          64.5646   92.0517   13.1562 C.ar    1  UNL1        0.0015
      8 C          63.7441   91.3696   12.1019 C.ar    1  UNL1        0.0172
      9 C          63.4860   89.8947   12.1901 C.ar    1  UNL1        0.0597
     10 C          63.8901   86.4415   13.9718 C.3     1  UNL1        0.1216
     11 N          63.3296   85.1200   13.5364 N.am    1  UNL1       -0.2715
     12 C          63.5900   83.8891   14.3533 C.2     1  UNL1        0.2493
     13 O          64.4109   83.9797   15.6054 O.2     1  UNL1       -0.2699
     14 C          62.5086   85.0294   12.2843 C.3     1  UNL1        0.1003
     15 C          62.2483   86.2603   11.4675 C.3     1  UNL1        0.0650
     16 C          63.0294   82.5677   13.9179 C.ar    1  UNL1        0.0536
     17 C          63.7426   81.7566   12.8770 C.ar    1  UNL1        0.0045
     18 C          63.1820   80.4352   12.4416 C.ar    1  UNL1        0.0001
     19 C          61.9080   79.9248   13.0471 C.ar    1  UNL1        0.0000
     20 C          61.1947   80.7359   14.0880 C.ar    1  UNL1        0.0001
     21 C          61.7554   82.0573   14.5234 C.ar    1  UNL1        0.0045
     22 C          61.9928   89.3245   10.0476 C.3     1  UNL1        0.1474
     23 O          59.7282   88.1206    9.6322 O.co2   1  UNL1       -0.5472
     24 C          60.4932   89.3490   10.0273 C.2     1  UNL1        0.0732
     25 O          59.7584   90.6018   10.4021 O.co2   1  UNL1       -0.5472
@<TRIPOS>UNITY_ATOM_ATTR
23 1
charge -1
@<TRIPOS>BOND
     1    23    24   ar
     2    24    25   ar
     3    24    22    1
     4    22     1    1
     5     1     2   ar
     6     2     3   ar
     7     3     4   ar
     8     4     5   ar
     9     5     6   ar
    10     6     7   ar
    11     7     8   ar
    12     8     9   ar
    13     3    10    1
    14    10    11    1
    15    11    12   am
    16    12    13    2
    17    12    16    1
    18    16    17   ar
    19    17    18   ar
    20    18    19   ar
    21    19    20   ar
    22    20    21   ar
    23    11    14    1
    24    14    15    1
    25     9     1   ar
    26    21    16   ar
    27    15     2    1
    28     9     4   ar
@<TRIPOS>MOLECULE
*****
 25 28 0 0 0
SMALL
GASTEIGER

@<TRIPOS>ATOM
      1 N          61.7306   87.0463   11.1914 N.ar    1  UNL1       -0.3256
      2 C          62.5988   88.1687   11.6776 C.ar    1  UNL1        0.0367
      3 C          62.3778   89.3486   10.7781 C.ar    1  UNL1        0.0108
      4 C          61.3731   88.9554    9.7361 C.ar    1  UNL1        0.0145
      5 C          60.7707   89.7092    8.5877 C.ar    1  UNL1        0.0012
      6 C          59.7684   89.0400    7.6947 C.ar    1  UNL1        0.0001
      7 C          59.3684   87.6171    7.9501 C.ar    1  UNL1        0.0015
      8 C          59.9707   86.8633    9.0985 C.ar    1  UNL1        0.0172
      9 C          60.9731   87.5324    9.9915 C.ar    1  UNL1        0.0597
     10 C          63.1201   90.6286   11.0242 C.3     1  UNL1        0.1216
     11 N          64.0833   90.7288   12.1697 N.am    1  UNL1       -0.2715
     12 C          64.8256   92.0089   12.4157 C.2     1  UNL1        0.2493
     13 O          64.6046   93.1888   11.5163 O.2     1  UNL1       -0.2699
     14 C          64.3043   89.5489   13.0692 C.3     1  UNL1        0.1003
     15 C          63.5620   88.2689   12.8231 C.3     1  UNL1        0.0650
     16 C          65.7888   92.1090   13.5612 C.ar    1  UNL1        0.0536
     17 C          67.2651   92.0234   13.3096 C.ar    1  UNL1        0.0045
     18 C          68.2282   92.1235   14.4552 C.ar    1  UNL1        0.0001
     19 C          67.7151   92.3091   15.8524 C.ar    1  UNL1        0.0000
     20 C          66.2388   92.3947   16.1041 C.ar    1  UNL1        0.0001
     21 C          65.2756   92.2946   14.9585 C.ar    1  UNL1        0.0045
     22 C          61.6365   85.6779   11.7986 C.3     1  UNL1        0.1474
     23 O          63.6273   84.7070   13.1565 O.co2   1  UNL1       -0.5472
     24 C          62.8544   84.8057   11.8747 C.2     1  UNL1        0.0732
     25 O          63.2995   84.0321   10.6691 O.co2   1  UNL1       -0.5472
@<TRIPOS>UNITY_ATOM_ATTR
23 1
charge -1
@<TRIPOS>BOND
     1    23    24   ar
     2    24    25   ar
     3    24    22    1
     4    22     1    1
     5     1     2   ar
     6     2     3   ar
     7     3     4   ar
     8     4     5   ar
     9     5     6   ar
    10     6     7   ar
    11     7     8   ar
    12     8     9   ar
    13     3    10    1
    14    10    11    1
    15    11    12   am
    16    12    13    2
    17    12    16    1
    18    16    17   ar
    19    17    18   ar
    20    18    19   ar
    21    19    20   ar
    22    20    21   ar
    23    11    14    1
    24    14    15    1
    25     9     1   ar
    26    21    16   ar
    27    15     2    1
    28     9     4   ar
@<TRIPOS>MOLECULE
*****
 25 28 0 0 0
SMALL
GASTEIGER

@<TRIPOS>ATOM
      1 N          61.7757   88.4410   10.3361 N.ar    1  UNL1       -0.3256
      2 C          62.0487   87.1944   11.1244 C.ar    1  UNL1        0.0367
      3 C          62.9732   87.5514   12.2504 C.ar    1  UNL1        0.0108
      4 C          63.2715   89.0185   12.1580 C.ar    1  UNL1        0.0145
      5 C          64.1214   89.9248   12.9984 C.ar    1  UNL1        0.0012
      6 C          64.2312   91.3809   12.6555 C.ar    1  UNL1        0.0001
      7 C          63.4911   91.9308   11.4724 C.ar    1  UNL1        0.0015
      8 C          62.6412   91.0245   10.6320 C.ar    1  UNL1        0.0172
      9 C          62.5314   89.5683   10.9749 C.ar    1  UNL1        0.0597
     10 C          63.4240   86.4943   13.2145 C.3     1  UNL1        0.1216
     11 N          62.9503   85.0803   13.0525 N.am    1  UNL1       -0.2715
     12 C          63.4011   84.0232   14.0166 C.2     1  UNL1        0.2493
     13 O          64.3255   84.3801   15.1426 O.2     1  UNL1       -0.2699
     14 C          62.0258   84.7234   11.9265 C.3     1  UNL1        0.1003
     15 C          61.5750   85.7804   10.9624 C.3     1  UNL1        0.0650
     16 C          62.9273   82.6092   13.8545 C.ar    1  UNL1        0.0536
     17 C          61.5804   82.2049   14.3764 C.ar    1  UNL1        0.0045
     18 C          61.1067   80.7909   14.2143 C.ar    1  UNL1        0.0001
     19 C          61.9800   79.7812   13.5303 C.ar    1  UNL1        0.0000
     20 C          63.3269   80.1855   13.0084 C.ar    1  UNL1        0.0001
     21 C          63.8006   81.5995   13.1705 C.ar    1  UNL1        0.0045
     22 C          60.9005   88.5424    9.1220 C.3     1  UNL1        0.1474
     23 O          61.3948   86.3288    7.8549 O.co2   1  UNL1       -0.5472
     24 C          60.4119   87.2972    8.4435 C.2     1  UNL1        0.0732
     25 O          58.9405   87.0202    8.3534 O.co2   1  UNL1       -0.5472
@<TRIPOS>UNITY_ATOM_ATTR
23 1
charge -1
@<TRIPOS>BOND
     1    23    24   ar
     2    24    25   ar
     3    24    22    1
     4    22     1    1
     5     1     2   ar
     6     2     3   ar
     7     3     4   ar
     8     4     5   ar
     9     5     6   ar
    10     6     7   ar
    11     7     8   ar
    12     8     9   ar
    13     3    10    1
    14    10    11    1
    15    11    12   am
    16    12    13    2
    17    12    16    1
    18    16    17   ar
    19    17    18   ar
    20    18    19   ar
    21    19    20   ar
    22    20    21   ar
    23    11    14    1
    24    14    15    1
    25     9     1   ar
    26    21    16   ar
    27    15     2    1
    28     9     4   ar
@<TRIPOS>MOLECULE
*****
 25 28 0 0 0
SMALL
GASTEIGER

@<TRIPOS>ATOM
      1 N          63.1190   88.9284   12.1391 N.ar    1  UNL1       -0.3256
      2 C          62.2564   89.0027   10.9142 C.ar    1  UNL1        0.0367
      3 C          61.7949   87.6134   10.5875 C.ar    1  UNL1        0.0108
      4 C          62.3723   86.6805   11.6104 C.ar    1  UNL1        0.0145
      5 C          62.2587   85.1959   11.7924 C.ar    1  UNL1        0.0012
      6 C          62.9633   84.5242   12.9335 C.ar    1  UNL1        0.0001
      7 C          63.7817   85.3370   13.8925 C.ar    1  UNL1        0.0015
      8 C          63.8954   86.8215   13.7104 C.ar    1  UNL1        0.0172
      9 C          63.1907   87.4933   12.5694 C.ar    1  UNL1        0.0597
     10 C          60.9085   87.3772    9.4007 C.3     1  UNL1        0.1216
     11 N          60.4836   88.5304    8.5406 N.am    1  UNL1       -0.2715
     12 C          59.5972   88.2942    7.3538 C.2     1  UNL1        0.2493
     13 O          59.1357   86.9049    7.0270 O.2     1  UNL1       -0.2699
     14 C          60.9451   89.9198    8.8674 C.3     1  UNL1        0.1003
     15 C          61.8315   90.1559   10.0542 C.3     1  UNL1        0.0650
     16 C          59.1723   89.4475    6.4938 C.ar    1  UNL1        0.0536
     17 C          60.2036   90.2739    5.7841 C.ar    1  UNL1        0.0045
     18 C          59.7786   91.4271    4.9242 C.ar    1  UNL1        0.0001
     19 C          58.3224   91.7540    4.7739 C.ar    1  UNL1        0.0000
     20 C          57.2911   90.9276    5.4836 C.ar    1  UNL1        0.0001
     21 C          57.7160   89.7744    6.3435 C.ar    1  UNL1        0.0045
     22 C          63.7919   90.0861   12.8151 C.3     1  UNL1        0.1474
     23 O          64.1646   91.5428   14.9339 O.co2   1  UNL1       -0.5472
     24 C          63.4193   90.4538   14.2207 C.2     1  UNL1        0.0732
     25 O          62.3013   89.7324   14.9134 O.co2   1  UNL1       -0.5472
@<TRIPOS>UNITY_ATOM_ATTR
23 1
charge -1
@<TRIPOS>BOND
     1    23    24   ar
     2    24    25   ar
     3    24    22    1
     4    22     1    1
     5     1     2   ar
     6     2     3   ar
     7     3     4   ar
     8     4     5   ar
     9     5     6   ar
    10     6     7   ar
    11     7     8   ar
    12     8     9   ar
    13     3    10    1
    14    10    11    1
    15    11    12   am
    16    12    13    2
    17    12    16    1
    18    16    17   ar
    19    17    18   ar
    20    18    19   ar
    21    19    20   ar
    22    20    21   ar
    23    11    14    1
    24    14    15    1
    25     9     1   ar
    26    21    16   ar
    27    15     2    1
    28     9     4   ar
