@<TRIPOS>MOLECULE
*****
 42 44 0 0 0
SMALL
GASTEIGER

@<TRIPOS>ATOM
      1 C          61.1024   88.5710   10.4839 C.3     1  UNL1        0.1416
      2 C          59.9708   88.4309    9.5093 C.3     1  UNL1        0.2736
      3 S          59.8081   87.1618    8.7264 S.O     1  UNL1        0.0319
      4 O          58.6765   87.0217    7.7518 O.co2   1  UNL1       -0.6812
      5 C          60.7770   86.0329    8.9182 C.3     1  UNL1        0.2582
      6 C          61.9086   86.1730    9.8928 C.3     1  UNL1        0.0920
      7 C          62.0712   87.4421   10.6757 C.3     1  UNL1        0.1353
      8 O          63.2028   87.5822   11.6503 O.3     1  UNL1       -0.3827
      9 H          63.1629   88.4566   12.0685 H       1  UNL1        0.2104
     10 N          61.2651   89.8401   11.2669 N.3     1  UNL1       -0.2887
     11 H          60.3272   90.2027   11.4382 H       1  UNL1        0.1237
     12 C          62.0703   90.9723   10.7013 C.3     1  UNL1        0.0958
     13 C          65.6721   92.5617   11.2017 C.ar    1  UNL1       -0.0231
     14 C          65.9877   92.1148   12.5983 C.ar    1  UNL1       -0.0043
     15 C          64.9975   91.2869   13.3626 C.ar    1  UNL1       -0.0006
     16 C          63.6917   90.9061   12.7303 C.ar    1  UNL1       -0.0029
     17 C          63.3762   91.3531   11.3337 C.ar    1  UNL1       -0.0067
     18 C          64.3664   92.1809   10.5694 C.ar    1  UNL1       -0.0072
     19 C          67.5568   92.1932   10.3003 C.3     1  UNL1        0.0044
     20 C          66.6624   93.3896   10.4373 C.3     1  UNL1        0.0189
     21 C          65.7679   94.5859   10.5743 C.3     1  UNL1        0.0044
     22 C          67.6526   94.2174    9.6730 C.3     1  UNL1        0.0044
     23 C          62.8774   85.0441   10.0845 C.3     1  UNL1        0.0342
     24 C          62.7509   84.1412   11.2757 C.ar    1  UNL1       -0.0166
     25 C          62.8611   82.6550   11.1054 C.ar    1  UNL1        0.0268
     26 C          62.7346   81.7522   12.2965 C.ar    1  UNL1        0.1556
     27 F          62.8448   80.2660   12.1262 F       1  UNL1       -0.2028
     28 C          62.4978   82.3355   13.6580 C.ar    1  UNL1        0.1037
     29 N          62.3712   81.4327   14.8491 N.pl3   1  UNL1       -0.3529
     30 C          62.3875   83.8217   13.8283 C.ar    1  UNL1        0.1535
     31 C          62.5141   84.7246   12.6371 C.ar    1  UNL1        0.0341
     32 H          62.4436   80.4572   14.7373 H       1  UNL1        0.1425
     33 H          62.2158   81.8156   15.7427 H       1  UNL1        0.1425
     34 O          62.1507   84.4051   15.1898 O.3     1  UNL1       -0.4665
     35 C          63.2000   85.2646   15.8303 C.3     1  UNL1        0.2888
     36 C          64.5861   85.3074   15.2586 C.3     1  UNL1        0.4366
     37 F          65.9722   85.3501   14.6869 F       1  UNL1       -0.1663
     38 F          64.3932   86.7507   14.8988 F       1  UNL1       -0.1663
     39 F          64.7790   83.8640   15.6184 F       1  UNL1       -0.1663
     40 C          62.8632   86.0814   17.0425 C.3     1  UNL1        0.1899
     41 O          61.4297   86.3652   17.3809 O.3     1  UNL1       -0.3783
     42 H          61.0403   86.9275   16.6931 H       1  UNL1        0.2106
@<TRIPOS>UNITY_ATOM_ATTR
3 1
charge 1
4 1
charge -1
@<TRIPOS>BOND
     1    19    20    1
     2    20    21    1
     3    20    22    1
     4    20    13    1
     5    13    14   ar
     6    14    15   ar
     7    15    16   ar
     8    16    17   ar
     9    17    12    1
    10    12    10    1
    11     1    10    1
    12     1     2    1
    13     2     3    1
    14     3     4    2
    15     3     5    1
    16     5     6    1
    17     6    23    1
    18    23    24    1
    19    24    25   ar
    20    25    26   ar
    21    26    27    1
    22    26    28   ar
    23    28    29    1
    24    28    30   ar
    25    30    34    1
    26    34    35    1
    27    35    40    1
    28    40    41    1
    29    35    36    1
    30    36    37    1
    31    36    38    1
    32    36    39    1
    33    30    31   ar
    34     6     7    1
    35     7     8    1
    36    17    18   ar
    37    18    13   ar
    38     7     1    1
    39    31    24   ar
    40    10    11    1
    41    29    32    1
    42    29    33    1
    43    41    42    1
    44     8     9    1
@<TRIPOS>MOLECULE
*****
 42 44 0 0 0
SMALL
GASTEIGER

@<TRIPOS>ATOM
      1 C          61.2313   88.6857   11.0756 C.3     1  UNL1        0.1416
      2 C          60.1535   88.7382   10.0338 C.3     1  UNL1        0.2736
      3 S          59.9914   87.6048    9.0647 S.O     1  UNL1        0.0319
      4 O          58.9135   87.6573    8.0228 O.co2   1  UNL1       -0.6812
      5 C          60.9071   86.4190    9.1375 C.3     1  UNL1        0.2582
      6 C          61.9849   86.3665   10.1793 C.3     1  UNL1        0.0920
      7 C          62.1470   87.4999   11.1484 C.3     1  UNL1        0.1353
      8 O          63.2248   87.4474   12.1904 O.3     1  UNL1       -0.3827
      9 H          63.1919   88.2525   12.7304 H       1  UNL1        0.2104
     10 N          61.3935   89.8191   12.0448 N.3     1  UNL1       -0.2887
     11 H          61.4651   90.6724   11.4906 H       1  UNL1        0.1237
     12 C          62.5472   89.8271   13.0032 C.3     1  UNL1        0.0958
     13 C          65.9062   91.8575   13.5908 C.ar    1  UNL1       -0.0231
     14 C          66.0758   92.5176   12.2546 C.ar    1  UNL1       -0.0043
     15 C          65.0692   92.2810   11.1680 C.ar    1  UNL1       -0.0006
     16 C          63.8930   91.3841   11.4175 C.ar    1  UNL1       -0.0029
     17 C          63.7235   90.7240   12.7537 C.ar    1  UNL1       -0.0067
     18 C          64.7300   90.9606   13.8403 C.ar    1  UNL1       -0.0072
     19 C          65.8007   92.2961   15.6636 C.3     1  UNL1        0.0044
     20 C          66.9128   92.0941   14.6774 C.3     1  UNL1        0.0189
     21 C          68.0248   91.8922   13.6912 C.3     1  UNL1        0.0044
     22 C          67.9194   92.3308   15.7640 C.3     1  UNL1        0.0044
     23 C          62.9005   85.1807   10.2521 C.3     1  UNL1        0.0342
     24 C          62.7675   84.1983   11.3778 C.ar    1  UNL1       -0.0166
     25 C          62.8305   82.7256   11.0994 C.ar    1  UNL1        0.0268
     26 C          62.6974   81.7433   12.2251 C.ar    1  UNL1        0.1556
     27 F          62.7605   80.2707   11.9468 F       1  UNL1       -0.2028
     28 C          62.5013   82.2334   13.6291 C.ar    1  UNL1        0.1037
     29 N          62.3682   81.2510   14.7548 N.pl3   1  UNL1       -0.3529
     30 C          62.4382   83.7060   13.9075 C.ar    1  UNL1        0.1535
     31 C          62.5713   84.6885   12.7818 C.ar    1  UNL1        0.0341
     32 H          62.4096   80.2845   14.5721 H       1  UNL1        0.1425
     33 H          62.2394   81.5728   15.6763 H       1  UNL1        0.1425
     34 O          62.2421   84.1962   15.3115 O.3     1  UNL1       -0.4665
     35 C          63.1985   85.1913   15.8990 C.3     1  UNL1        0.2888
     36 C          64.5676   85.3546   15.3084 C.3     1  UNL1        0.4366
     37 F          65.9367   85.5179   14.7178 F       1  UNL1       -0.1663
     38 F          64.3026   86.8160   15.0982 F       1  UNL1       -0.1663
     39 F          64.8326   83.8933   15.5186 F       1  UNL1       -0.1663
     40 C          62.7857   86.0231   17.0770 C.3     1  UNL1        0.1899
     41 O          61.3374   86.3452   17.2971 O.3     1  UNL1       -0.3783
     42 H          61.0196   86.9134   16.5779 H       1  UNL1        0.2106
@<TRIPOS>UNITY_ATOM_ATTR
3 1
charge 1
4 1
charge -1
@<TRIPOS>BOND
     1    19    20    1
     2    20    21    1
     3    20    22    1
     4    20    13    1
     5    13    14   ar
     6    14    15   ar
     7    15    16   ar
     8    16    17   ar
     9    17    12    1
    10    12    10    1
    11     1    10    1
    12     1     2    1
    13     2     3    1
    14     3     4    2
    15     3     5    1
    16     5     6    1
    17     6    23    1
    18    23    24    1
    19    24    25   ar
    20    25    26   ar
    21    26    27    1
    22    26    28   ar
    23    28    29    1
    24    28    30   ar
    25    30    34    1
    26    34    35    1
    27    35    40    1
    28    40    41    1
    29    35    36    1
    30    36    37    1
    31    36    38    1
    32    36    39    1
    33    30    31   ar
    34     6     7    1
    35     7     8    1
    36    17    18   ar
    37    18    13   ar
    38     7     1    1
    39    31    24   ar
    40    10    11    1
    41    29    32    1
    42    29    33    1
    43    41    42    1
    44     8     9    1
@<TRIPOS>MOLECULE
*****
 42 44 0 0 0
SMALL
GASTEIGER

@<TRIPOS>ATOM
      1 C          61.8489   86.9343    9.6592 C.3     1  UNL1        0.1416
      2 C          60.8574   87.2023    8.5661 C.3     1  UNL1        0.2736
      3 S          60.1453   88.5212    8.5063 S.O     1  UNL1        0.0319
      4 O          59.1537   88.7893    7.4131 O.co2   1  UNL1       -0.6812
      5 C          60.4248   89.5719    9.5396 C.3     1  UNL1        0.2582
      6 C          61.4164   89.3039   10.6327 C.3     1  UNL1        0.0920
      7 C          62.1284   87.9850   10.6925 C.3     1  UNL1        0.1353
      8 O          63.1200   87.7169   11.7856 O.3     1  UNL1       -0.3827
      9 H          63.4860   86.8250   11.6786 H       1  UNL1        0.2104
     10 N          62.5610   85.6154    9.7190 N.3     1  UNL1       -0.2887
     11 H          62.6135   85.2654    8.7623 H       1  UNL1        0.1237
     12 C          62.0078   84.5017   10.5577 C.3     1  UNL1        0.0958
     13 C          63.4852   84.4314   14.2404 C.ar    1  UNL1       -0.0231
     14 C          64.2282   83.1285   14.2229 C.ar    1  UNL1       -0.0043
     15 C          64.2310   82.2833   12.9837 C.ar    1  UNL1       -0.0006
     16 C          63.4909   82.7410   11.7620 C.ar    1  UNL1       -0.0029
     17 C          62.7479   84.0439   11.7795 C.ar    1  UNL1       -0.0067
     18 C          62.7451   84.8891   13.0187 C.ar    1  UNL1       -0.0072
     19 C          62.3522   84.4605   16.0336 C.3     1  UNL1        0.0044
     20 C          63.4823   85.2766   15.4796 C.3     1  UNL1        0.0189
     21 C          64.6124   86.0926   14.9256 C.3     1  UNL1        0.0044
     22 C          63.4795   86.1218   16.7188 C.3     1  UNL1        0.0044
     23 C          61.6959   90.3546   11.6660 C.3     1  UNL1        0.0342
     24 C          63.0689   90.9475   11.7805 C.ar    1  UNL1       -0.0166
     25 C          63.6350   91.7526   10.6484 C.ar    1  UNL1        0.0268
     26 C          65.0081   92.3455   10.7628 C.ar    1  UNL1        0.1556
     27 F          65.5741   93.1505    9.6308 F       1  UNL1       -0.2028
     28 C          65.8151   92.1334   12.0093 C.ar    1  UNL1        0.1037
     29 N          67.1882   92.7263   12.1237 N.pl3   1  UNL1       -0.3529
     30 C          65.2491   91.3284   13.1413 C.ar    1  UNL1        0.1535
     31 C          63.8760   90.7354   13.0269 C.ar    1  UNL1        0.0341
     32 H          67.5597   93.2546   11.3807 H       1  UNL1        0.1425
     33 H          67.7179   92.5870   12.9418 H       1  UNL1        0.1425
     34 O          66.0562   91.1162   14.3878 O.3     1  UNL1       -0.4665
     35 C          65.9472   92.0871   15.5261 C.3     1  UNL1        0.2888
     36 C          67.0629   93.0521   15.7981 C.3     1  UNL1        0.4366
     37 F          68.1785   94.0172   16.0701 F       1  UNL1       -0.1663
     38 F          67.6636   92.0830   16.7727 F       1  UNL1       -0.1663
     39 F          66.4622   94.0213   14.8235 F       1  UNL1       -0.1663
     40 C          64.7227   92.0928   16.3923 C.3     1  UNL1        0.1899
     41 O          64.5793   93.1139   17.4816 O.3     1  UNL1       -0.3783
     42 H          65.2566   92.9613   18.1591 H       1  UNL1        0.2106
@<TRIPOS>UNITY_ATOM_ATTR
3 1
charge 1
4 1
charge -1
@<TRIPOS>BOND
     1    19    20    1
     2    20    21    1
     3    20    22    1
     4    20    13    1
     5    13    14   ar
     6    14    15   ar
     7    15    16   ar
     8    16    17   ar
     9    17    12    1
    10    12    10    1
    11     1    10    1
    12     1     2    1
    13     2     3    1
    14     3     4    2
    15     3     5    1
    16     5     6    1
    17     6    23    1
    18    23    24    1
    19    24    25   ar
    20    25    26   ar
    21    26    27    1
    22    26    28   ar
    23    28    29    1
    24    28    30   ar
    25    30    34    1
    26    34    35    1
    27    35    40    1
    28    40    41    1
    29    35    36    1
    30    36    37    1
    31    36    38    1
    32    36    39    1
    33    30    31   ar
    34     6     7    1
    35     7     8    1
    36    17    18   ar
    37    18    13   ar
    38     7     1    1
    39    31    24   ar
    40    10    11    1
    41    29    32    1
    42    29    33    1
    43    41    42    1
    44     8     9    1
@<TRIPOS>MOLECULE
*****
 42 44 0 0 0
SMALL
GASTEIGER

@<TRIPOS>ATOM
      1 C          64.0566   86.0843   15.5815 C.3     1  UNL1        0.1416
      2 C          63.4176   85.7998   16.9084 C.3     1  UNL1        0.2736
      3 S          62.8658   86.9256   17.7319 S.O     1  UNL1        0.0319
      4 O          62.2268   86.6412   19.0589 O.co2   1  UNL1       -0.6812
      5 C          62.9531   88.3359   17.2284 C.3     1  UNL1        0.2582
      6 C          63.5920   88.6204   15.9015 C.3     1  UNL1        0.0920
      7 C          64.1438   87.4946   15.0781 C.3     1  UNL1        0.1353
      8 O          64.7828   87.7791   13.7511 O.3     1  UNL1       -0.3827
      9 H          65.0840   86.9477   13.3524 H       1  UNL1        0.2104
     10 N          64.6083   84.9585   14.7580 N.3     1  UNL1       -0.2887
     11 H          65.1914   85.3806   14.0353 H       1  UNL1        0.1237
     12 C          63.6763   84.0104   14.0635 C.3     1  UNL1        0.0958
     13 C          62.7367   84.9574   10.3257 C.ar    1  UNL1       -0.0231
     14 C          63.5032   83.9143    9.5678 C.ar    1  UNL1       -0.0043
     15 C          64.3274   82.9033   10.3084 C.ar    1  UNL1       -0.0006
     16 C          64.3851   82.9353   11.8070 C.ar    1  UNL1       -0.0029
     17 C          63.6186   83.9784   12.5648 C.ar    1  UNL1       -0.0067
     18 C          62.7944   84.9894   11.8242 C.ar    1  UNL1       -0.0072
     19 C          62.6031   85.5950    8.3069 C.3     1  UNL1        0.0044
     20 C          61.9125   85.9684    9.5851 C.3     1  UNL1        0.0189
     21 C          61.2219   86.3417   10.8633 C.3     1  UNL1        0.0044
     22 C          61.0883   86.9794    8.8445 C.3     1  UNL1        0.0044
     23 C          63.6793   90.0307   15.3980 C.3     1  UNL1        0.0342
     24 C          63.4367   90.3256   13.9475 C.ar    1  UNL1       -0.0166
     25 C          62.2037   89.8027   13.2718 C.ar    1  UNL1        0.0268
     26 C          61.9611   90.0976   11.8212 C.ar    1  UNL1        0.1556
     27 F          60.7282   89.5747   11.1456 F       1  UNL1       -0.2028
     28 C          62.9515   90.9153   11.0463 C.ar    1  UNL1        0.1037
     29 N          62.7089   91.2102    9.5957 N.pl3   1  UNL1       -0.3529
     30 C          64.1844   91.4382   11.7219 C.ar    1  UNL1        0.1535
     31 C          64.4270   91.1433   13.1725 C.ar    1  UNL1        0.0341
     32 H          61.8997   90.8670    9.1523 H       1  UNL1        0.1425
     33 H          63.3589   91.7469    9.0871 H       1  UNL1        0.1425
     34 O          65.1747   92.2559   10.9469 O.3     1  UNL1       -0.4665
     35 C          66.3167   92.9211   11.6565 C.3     1  UNL1        0.2888
     36 C          67.5742   92.1535   11.9378 C.3     1  UNL1        0.4366
     37 F          68.8318   91.3858   12.2191 F       1  UNL1       -0.1663
     38 F          67.7593   91.9180   10.4680 F       1  UNL1       -0.1663
     39 F          67.3892   92.3889   13.4076 F       1  UNL1       -0.1663
     40 C          66.2010   94.3540   12.0848 C.3     1  UNL1        0.1899
     41 O          65.5162   95.3495   11.1961 O.3     1  UNL1       -0.3783
     42 H          66.0312   95.4645   10.3822 H       1  UNL1        0.2106
@<TRIPOS>UNITY_ATOM_ATTR
3 1
charge 1
4 1
charge -1
@<TRIPOS>BOND
     1    19    20    1
     2    20    21    1
     3    20    22    1
     4    20    13    1
     5    13    14   ar
     6    14    15   ar
     7    15    16   ar
     8    16    17   ar
     9    17    12    1
    10    12    10    1
    11     1    10    1
    12     1     2    1
    13     2     3    1
    14     3     4    2
    15     3     5    1
    16     5     6    1
    17     6    23    1
    18    23    24    1
    19    24    25   ar
    20    25    26   ar
    21    26    27    1
    22    26    28   ar
    23    28    29    1
    24    28    30   ar
    25    30    34    1
    26    34    35    1
    27    35    40    1
    28    40    41    1
    29    35    36    1
    30    36    37    1
    31    36    38    1
    32    36    39    1
    33    30    31   ar
    34     6     7    1
    35     7     8    1
    36    17    18   ar
    37    18    13   ar
    38     7     1    1
    39    31    24   ar
    40    10    11    1
    41    29    32    1
    42    29    33    1
    43    41    42    1
    44     8     9    1
@<TRIPOS>MOLECULE
*****
 42 44 0 0 0
SMALL
GASTEIGER

@<TRIPOS>ATOM
      1 C          63.4987   91.1620   11.1871 C.3     1  UNL1        0.1416
      2 C          64.8129   91.8397   10.9355 C.3     1  UNL1        0.2736
      3 S          65.7404   92.1258   12.0791 S.O     1  UNL1        0.0319
      4 O          67.0547   92.8035   11.8274 O.co2   1  UNL1       -0.6812
      5 C          65.3536   91.7341   13.4744 C.3     1  UNL1        0.2582
      6 C          64.0393   91.0564   13.7261 C.3     1  UNL1        0.0920
      7 C          63.1119   90.7703   12.5825 C.3     1  UNL1        0.1353
      8 O          61.7976   90.0925   12.8341 O.3     1  UNL1       -0.3827
      9 H          61.3240   89.9836   11.9946 H       1  UNL1        0.2104
     10 N          62.5712   90.8759   10.0435 N.3     1  UNL1       -0.2887
     11 H          62.2942   91.7779    9.6562 H       1  UNL1        0.1237
     12 C          61.3094   90.0993   10.2773 C.3     1  UNL1        0.0958
     13 C          61.6937   86.4114    8.8625 C.ar    1  UNL1       -0.0231
     14 C          60.5155   86.3385    7.9372 C.ar    1  UNL1       -0.0043
     15 C          59.6018   87.5193    7.7919 C.ar    1  UNL1       -0.0006
     16 C          59.8664   88.7728    8.5719 C.ar    1  UNL1       -0.0029
     17 C          61.0447   88.8457    9.4973 C.ar    1  UNL1       -0.0067
     18 C          61.9584   87.6649    9.6426 C.ar    1  UNL1       -0.0072
     19 C          62.4777   85.3139   10.4999 C.3     1  UNL1        0.0044
     20 C          62.6074   85.2306    9.0078 C.3     1  UNL1        0.0189
     21 C          62.7371   85.1474    7.5158 C.3     1  UNL1        0.0044
     22 C          63.5211   84.0499    9.1532 C.3     1  UNL1        0.0044
     23 C          63.6525   90.6647   15.1215 C.3     1  UNL1        0.0342
     24 C          63.6698   89.2207   15.5272 C.ar    1  UNL1       -0.0166
     25 C          63.1683   88.8162   16.8818 C.ar    1  UNL1        0.0268
     26 C          63.1856   87.3723   17.2876 C.ar    1  UNL1        0.1556
     27 F          62.6841   86.9679   18.6421 F       1  UNL1       -0.2028
     28 C          63.7044   86.3328   16.3388 C.ar    1  UNL1        0.1037
     29 N          63.7218   84.8888   16.7445 N.pl3   1  UNL1       -0.3529
     30 C          64.2060   86.7372   14.9842 C.ar    1  UNL1        0.1535
     31 C          64.1887   88.1812   14.5784 C.ar    1  UNL1        0.0341
     32 H          63.3926   84.6234   17.6336 H       1  UNL1        0.1425
     33 H          64.0623   84.2066   16.1218 H       1  UNL1        0.1425
     34 O          64.7248   85.6977   14.0354 O.3     1  UNL1       -0.4665
     35 C          63.8413   84.5624   13.6104 C.3     1  UNL1        0.2888
     36 C          64.4474   83.2519   13.2040 C.3     1  UNL1        0.4366
     37 F          65.0535   81.9414   12.7975 F       1  UNL1       -0.1663
     38 F          64.9067   83.8644   11.9141 F       1  UNL1       -0.1663
     39 F          63.9881   82.6394   14.4939 F       1  UNL1       -0.1663
     40 C          62.3517   84.7376   13.5920 C.3     1  UNL1        0.1899
     41 O          61.5452   84.4316   14.8191 O.3     1  UNL1       -0.3783
     42 H          61.5945   83.4819   15.0099 H       1  UNL1        0.2106
@<TRIPOS>UNITY_ATOM_ATTR
3 1
charge 1
4 1
charge -1
@<TRIPOS>BOND
     1    19    20    1
     2    20    21    1
     3    20    22    1
     4    20    13    1
     5    13    14   ar
     6    14    15   ar
     7    15    16   ar
     8    16    17   ar
     9    17    12    1
    10    12    10    1
    11     1    10    1
    12     1     2    1
    13     2     3    1
    14     3     4    2
    15     3     5    1
    16     5     6    1
    17     6    23    1
    18    23    24    1
    19    24    25   ar
    20    25    26   ar
    21    26    27    1
    22    26    28   ar
    23    28    29    1
    24    28    30   ar
    25    30    34    1
    26    34    35    1
    27    35    40    1
    28    40    41    1
    29    35    36    1
    30    36    37    1
    31    36    38    1
    32    36    39    1
    33    30    31   ar
    34     6     7    1
    35     7     8    1
    36    17    18   ar
    37    18    13   ar
    38     7     1    1
    39    31    24   ar
    40    10    11    1
    41    29    32    1
    42    29    33    1
    43    41    42    1
    44     8     9    1
@<TRIPOS>MOLECULE
*****
 42 44 0 0 0
SMALL
GASTEIGER

@<TRIPOS>ATOM
      1 C          64.4361   90.7499   12.9660 C.3     1  UNL1        0.1416
      2 C          65.3511   91.6663   12.2092 C.3     1  UNL1        0.2736
      3 S          64.9265   92.2220   10.8822 S.O     1  UNL1        0.0319
      4 O          65.8417   93.1385   10.1254 O.co2   1  UNL1       -0.6812
      5 C          63.5869   91.8613   10.3121 C.3     1  UNL1        0.2582
      6 C          62.6718   90.9449   11.0688 C.3     1  UNL1        0.0920
      7 C          63.0964   90.3892   12.3958 C.3     1  UNL1        0.1353
      8 O          62.1813   89.4727   13.1527 O.3     1  UNL1       -0.3827
      9 H          62.6050   89.2066   13.9836 H       1  UNL1        0.2104
     10 N          64.8606   90.1942   14.2930 N.3     1  UNL1       -0.2887
     11 H          65.2766   89.2810   14.1103 H       1  UNL1        0.1237
     12 C          63.8486   89.9988   15.3828 C.3     1  UNL1        0.0958
     13 C          63.8075   86.0482   15.7584 C.ar    1  UNL1       -0.0231
     14 C          63.1560   85.8979   17.1012 C.ar    1  UNL1       -0.0043
     15 C          62.7355   87.1145   17.8711 C.ar    1  UNL1       -0.0006
     16 C          62.9663   88.4815   17.2983 C.ar    1  UNL1       -0.0029
     17 C          63.6177   88.6318   15.9556 C.ar    1  UNL1       -0.0067
     18 C          64.0383   87.4151   15.1856 C.ar    1  UNL1       -0.0072
     19 C          62.9064   84.1870   15.2850 C.3     1  UNL1        0.0044
     20 C          64.2280   84.8315   14.9884 C.3     1  UNL1        0.0189
     21 C          65.5496   85.4760   14.6919 C.3     1  UNL1        0.0044
     22 C          64.6486   83.6148   14.2185 C.3     1  UNL1        0.0044
     23 C          61.3321   90.5842   10.4986 C.3     1  UNL1        0.0342
     24 C          61.1609   89.3023    9.7387 C.ar    1  UNL1       -0.0166
     25 C          60.0082   89.1394    8.7927 C.ar    1  UNL1        0.0268
     26 C          59.8370   87.8576    8.0328 C.ar    1  UNL1        0.1556
     27 F          58.6844   87.6947    7.0869 F       1  UNL1       -0.2028
     28 C          60.8185   86.7386    8.2188 C.ar    1  UNL1        0.1037
     29 N          60.6474   85.4568    7.4588 N.pl3   1  UNL1       -0.3529
     30 C          61.9712   86.9015    9.1647 C.ar    1  UNL1        0.1535
     31 C          62.1424   88.1834    9.9247 C.ar    1  UNL1        0.0341
     32 H          59.8908   85.3499    6.8380 H       1  UNL1        0.1425
     33 H          61.2916   84.7224    7.5809 H       1  UNL1        0.1425
     34 O          62.9527   85.7825    9.3506 O.3     1  UNL1       -0.4665
     35 C          62.8287   84.8645   10.5305 C.3     1  UNL1        0.2888
     36 C          63.3307   83.4540   10.4392 C.3     1  UNL1        0.4366
     37 F          63.8327   82.0434   10.3480 F       1  UNL1       -0.1663
     38 F          64.1747   83.8307    9.2578 F       1  UNL1       -0.1663
     39 F          62.4868   83.0772   11.6206 F       1  UNL1       -0.1663
     40 C          62.2028   85.3570   11.8015 C.3     1  UNL1        0.1899
     41 O          62.7635   86.5628   12.4955 O.3     1  UNL1       -0.3783
     42 H          63.6553   86.3632   12.8205 H       1  UNL1        0.2106
@<TRIPOS>UNITY_ATOM_ATTR
3 1
charge 1
4 1
charge -1
@<TRIPOS>BOND
     1    19    20    1
     2    20    21    1
     3    20    22    1
     4    20    13    1
     5    13    14   ar
     6    14    15   ar
     7    15    16   ar
     8    16    17   ar
     9    17    12    1
    10    12    10    1
    11     1    10    1
    12     1     2    1
    13     2     3    1
    14     3     4    2
    15     3     5    1
    16     5     6    1
    17     6    23    1
    18    23    24    1
    19    24    25   ar
    20    25    26   ar
    21    26    27    1
    22    26    28   ar
    23    28    29    1
    24    28    30   ar
    25    30    34    1
    26    34    35    1
    27    35    40    1
    28    40    41    1
    29    35    36    1
    30    36    37    1
    31    36    38    1
    32    36    39    1
    33    30    31   ar
    34     6     7    1
    35     7     8    1
    36    17    18   ar
    37    18    13   ar
    38     7     1    1
    39    31    24   ar
    40    10    11    1
    41    29    32    1
    42    29    33    1
    43    41    42    1
    44     8     9    1
@<TRIPOS>MOLECULE
*****
 42 44 0 0 0
SMALL
GASTEIGER

@<TRIPOS>ATOM
      1 C          63.7390   86.3578   15.0284 C.3     1  UNL1        0.1416
      2 C          63.3915   86.1175   16.4677 C.3     1  UNL1        0.2736
      3 S          63.0579   87.2746   17.3619 S.O     1  UNL1        0.0319
      4 O          62.7104   87.0344   18.8013 O.co2   1  UNL1       -0.6812
      5 C          63.0716   88.6720   16.8169 C.3     1  UNL1        0.2582
      6 C          63.4191   88.9123   15.3777 C.3     1  UNL1        0.0920
      7 C          63.7528   87.7552   14.4834 C.3     1  UNL1        0.1353
      8 O          64.1002   87.9955   13.0441 O.3     1  UNL1       -0.3827
      9 H          64.2877   87.1481   12.6109 H       1  UNL1        0.2104
     10 N          64.0727   85.2007   14.1341 N.3     1  UNL1       -0.2887
     11 H          64.7717   85.5337   13.4701 H       1  UNL1        0.1237
     12 C          62.9932   84.5382   13.3306 C.3     1  UNL1        0.0958
     13 C          62.0262   86.1450    9.8330 C.ar    1  UNL1       -0.0231
     14 C          62.7483   85.2283    8.8906 C.ar    1  UNL1       -0.0043
     15 C          63.5520   84.0815    9.4281 C.ar    1  UNL1       -0.0006
     16 C          63.6336   83.8515   10.9081 C.ar    1  UNL1       -0.0029
     17 C          62.9116   84.7682   11.8505 C.ar    1  UNL1       -0.0067
     18 C          62.1079   85.9150   11.3130 C.ar    1  UNL1       -0.0072
     19 C          60.3919   86.3340    8.4939 C.3     1  UNL1        0.0044
     20 C          61.2226   87.2918    9.2954 C.3     1  UNL1        0.0189
     21 C          62.0532   88.2497   10.0970 C.3     1  UNL1        0.0044
     22 C          60.4189   88.4386    8.7579 C.3     1  UNL1        0.0044
     23 C          63.4329   90.3098   14.8327 C.3     1  UNL1        0.0342
     24 C          64.7217   91.0736   14.7596 C.ar    1  UNL1       -0.0166
     25 C          65.2759   91.7290   15.9899 C.ar    1  UNL1        0.0268
     26 C          66.5647   92.4929   15.9169 C.ar    1  UNL1        0.1556
     27 F          67.1188   93.1482   17.1471 F       1  UNL1       -0.2028
     28 C          67.2994   92.6014   14.6137 C.ar    1  UNL1        0.1037
     29 N          68.5882   93.3653   14.5406 N.pl3   1  UNL1       -0.3529
     30 C          66.7453   91.9461   13.3834 C.ar    1  UNL1        0.1535
     31 C          65.4564   91.1822   13.4564 C.ar    1  UNL1        0.0341
     32 H          68.9519   93.7954   15.3481 H       1  UNL1        0.1425
     33 H          69.0704   93.4366   13.6853 H       1  UNL1        0.1425
     34 O          67.4800   92.0547   12.0802 O.3     1  UNL1       -0.4665
     35 C          66.9867   92.9907   11.0169 C.3     1  UNL1        0.2888
     36 C          67.6440   93.0074    9.6687 C.3     1  UNL1        0.4366
     37 F          68.3012   93.0242    8.3205 F       1  UNL1       -0.1663
     38 F          67.7869   91.5152    9.7198 F       1  UNL1       -0.1663
     39 F          67.5011   94.4997    9.6175 F       1  UNL1       -0.1663
     40 C          65.8361   93.9100   11.3018 C.3     1  UNL1        0.1899
     41 O          66.0089   95.0541   12.2563 O.3     1  UNL1       -0.3783
     42 H          66.1661   94.7094   13.1492 H       1  UNL1        0.2106
@<TRIPOS>UNITY_ATOM_ATTR
3 1
charge 1
4 1
charge -1
@<TRIPOS>BOND
     1    19    20    1
     2    20    21    1
     3    20    22    1
     4    20    13    1
     5    13    14   ar
     6    14    15   ar
     7    15    16   ar
     8    16    17   ar
     9    17    12    1
    10    12    10    1
    11     1    10    1
    12     1     2    1
    13     2     3    1
    14     3     4    2
    15     3     5    1
    16     5     6    1
    17     6    23    1
    18    23    24    1
    19    24    25   ar
    20    25    26   ar
    21    26    27    1
    22    26    28   ar
    23    28    29    1
    24    28    30   ar
    25    30    34    1
    26    34    35    1
    27    35    40    1
    28    40    41    1
    29    35    36    1
    30    36    37    1
    31    36    38    1
    32    36    39    1
    33    30    31   ar
    34     6     7    1
    35     7     8    1
    36    17    18   ar
    37    18    13   ar
    38     7     1    1
    39    31    24   ar
    40    10    11    1
    41    29    32    1
    42    29    33    1
    43    41    42    1
    44     8     9    1
@<TRIPOS>MOLECULE
*****
 42 44 0 0 0
SMALL
GASTEIGER

@<TRIPOS>ATOM
      1 C          63.3696   82.4729   11.8520 C.3     1  UNL1        0.1416
      2 C          62.2032   81.7141   12.4120 C.3     1  UNL1        0.2736
      3 S          61.8820   81.8046   13.8744 S.O     1  UNL1        0.0319
      4 O          60.7156   81.0457   14.4344 O.co2   1  UNL1       -0.6812
      5 C          62.7271   82.6540   14.7767 C.3     1  UNL1        0.2582
      6 C          63.8935   83.4128   14.2168 C.3     1  UNL1        0.0920
      7 C          64.2148   83.3223   12.7544 C.3     1  UNL1        0.1353
      8 O          65.3812   84.0812   12.1943 O.3     1  UNL1       -0.3827
      9 H          65.4482   83.9139   11.2412 H       1  UNL1        0.2104
     10 N          63.6909   82.3824   10.3896 N.3     1  UNL1       -0.2887
     11 H          64.4628   81.7219   10.2980 H       1  UNL1        0.1237
     12 C          64.0833   83.6150    9.6302 C.3     1  UNL1        0.0958
     13 C          61.2547   86.3716    9.2430 C.ar    1  UNL1       -0.0231
     14 C          60.9154   86.2273    7.7890 C.ar    1  UNL1       -0.0043
     15 C          61.6321   85.2122    6.9488 C.ar    1  UNL1       -0.0006
     16 C          62.6881   84.3415    7.5625 C.ar    1  UNL1       -0.0029
     17 C          63.0273   84.4858    9.0164 C.ar    1  UNL1       -0.0067
     18 C          62.3106   85.5008    9.8567 C.ar    1  UNL1       -0.0072
     19 C          60.0036   88.0370    8.8417 C.3     1  UNL1        0.0044
     20 C          60.5380   87.3866   10.0832 C.3     1  UNL1        0.0189
     21 C          61.0723   86.7362   11.3247 C.3     1  UNL1        0.0044
     22 C          59.8212   88.4017   10.9235 C.3     1  UNL1        0.0044
     23 C          64.7387   84.2622   15.1191 C.3     1  UNL1        0.0342
     24 C          64.2883   85.6452   15.4860 C.ar    1  UNL1       -0.0166
     25 C          63.3182   85.8439   16.6128 C.ar    1  UNL1        0.0268
     26 C          62.8678   87.2268   16.9796 C.ar    1  UNL1        0.1556
     27 F          61.8979   87.4254   18.1064 F       1  UNL1       -0.2028
     28 C          63.3874   88.4111   16.2197 C.ar    1  UNL1        0.1037
     29 N          62.9370   89.7940   16.5865 N.pl3   1  UNL1       -0.3529
     30 C          64.3574   88.2124   15.0929 C.ar    1  UNL1        0.1535
     31 C          64.8078   86.8294   14.7260 C.ar    1  UNL1        0.0341
     32 H          62.3004   89.9244   17.3260 H       1  UNL1        0.1425
     33 H          63.2780   90.5713   16.0877 H       1  UNL1        0.1425
     34 O          64.8769   89.3967   14.3330 O.3     1  UNL1       -0.4665
     35 C          64.0074   90.0762   13.3169 C.3     1  UNL1        0.2888
     36 C          64.4714   91.3417   12.6588 C.3     1  UNL1        0.4366
     37 F          64.9354   92.6071   12.0007 F       1  UNL1       -0.1663
     38 F          65.6178   91.4226   13.6227 F       1  UNL1       -0.1663
     39 F          63.3250   91.2607   11.6949 F       1  UNL1       -0.1663
     40 C          62.6738   89.4901   12.9591 C.3     1  UNL1        0.1899
     41 O          61.4374   89.9466   13.6752 O.3     1  UNL1       -0.3783
     42 H          61.4867   89.6810   14.6068 H       1  UNL1        0.2106
@<TRIPOS>UNITY_ATOM_ATTR
3 1
charge 1
4 1
charge -1
@<TRIPOS>BOND
     1    19    20    1
     2    20    21    1
     3    20    22    1
     4    20    13    1
     5    13    14   ar
     6    14    15   ar
     7    15    16   ar
     8    16    17   ar
     9    17    12    1
    10    12    10    1
    11     1    10    1
    12     1     2    1
    13     2     3    1
    14     3     4    2
    15     3     5    1
    16     5     6    1
    17     6    23    1
    18    23    24    1
    19    24    25   ar
    20    25    26   ar
    21    26    27    1
    22    26    28   ar
    23    28    29    1
    24    28    30   ar
    25    30    34    1
    26    34    35    1
    27    35    40    1
    28    40    41    1
    29    35    36    1
    30    36    37    1
    31    36    38    1
    32    36    39    1
    33    30    31   ar
    34     6     7    1
    35     7     8    1
    36    17    18   ar
    37    18    13   ar
    38     7     1    1
    39    31    24   ar
    40    10    11    1
    41    29    32    1
    42    29    33    1
    43    41    42    1
    44     8     9    1
@<TRIPOS>MOLECULE
*****
 42 44 0 0 0
SMALL
GASTEIGER

@<TRIPOS>ATOM
      1 C          62.1373   87.1470   10.0203 C.3     1  UNL1        0.1416
      2 C          61.2074   87.6499    8.9563 C.3     1  UNL1        0.2736
      3 S          60.5755   89.0036    9.0910 S.O     1  UNL1        0.0319
      4 O          59.6455   89.5065    8.0269 O.co2   1  UNL1       -0.6812
      5 C          60.8736   89.8544   10.2899 C.3     1  UNL1        0.2582
      6 C          61.8035   89.3515   11.3539 C.3     1  UNL1        0.0920
      7 C          62.4354   87.9979   11.2192 C.3     1  UNL1        0.1353
      8 O          63.3654   87.4949   12.2833 O.3     1  UNL1       -0.3827
      9 H          63.6833   86.6105   12.0432 H       1  UNL1        0.2104
     10 N          62.7692   85.7933    9.8856 N.3     1  UNL1       -0.2887
     11 H          62.8650   85.6111    8.8866 H       1  UNL1        0.1237
     12 C          62.1007   84.5907   10.4829 C.3     1  UNL1        0.0958
     13 C          63.3582   84.1941   14.2261 C.ar    1  UNL1       -0.0231
     14 C          63.7376   82.7431   14.2454 C.ar    1  UNL1       -0.0043
     15 C          63.5715   81.9079   13.0106 C.ar    1  UNL1       -0.0006
     16 C          63.0258   82.5237   11.7564 C.ar    1  UNL1       -0.0029
     17 C          62.6464   83.9748   11.7371 C.ar    1  UNL1       -0.0067
     18 C          62.8126   84.8100   12.9720 C.ar    1  UNL1       -0.0072
     19 C          64.8016   85.5904   14.9096 C.3     1  UNL1        0.0044
     20 C          63.5244   85.0293   15.4609 C.3     1  UNL1        0.0189
     21 C          62.2472   84.4683   16.0123 C.3     1  UNL1        0.0044
     22 C          63.6906   85.8645   16.6958 C.3     1  UNL1        0.0044
     23 C          62.1016   90.2024   12.5528 C.3     1  UNL1        0.0342
     24 C          63.4179   90.9136   12.6591 C.ar    1  UNL1       -0.0166
     25 C          64.3451   90.6091   13.7984 C.ar    1  UNL1        0.0268
     26 C          65.6614   91.3204   13.9047 C.ar    1  UNL1        0.1556
     27 F          66.5884   91.0159   15.0439 F       1  UNL1       -0.2028
     28 C          66.0507   92.3361   12.8719 C.ar    1  UNL1        0.1037
     29 N          67.3670   93.0474   12.9782 N.pl3   1  UNL1       -0.3529
     30 C          65.1236   92.6406   11.7327 C.ar    1  UNL1        0.1535
     31 C          63.8072   91.9294   11.6263 C.ar    1  UNL1        0.0341
     32 H          67.9755   92.8475   13.7259 H       1  UNL1        0.1425
     33 H          67.6225   93.7140   12.3004 H       1  UNL1        0.1425
     34 O          65.5129   93.6564   10.6999 O.3     1  UNL1       -0.4665
     35 C          66.8264   93.5344    9.9858 C.3     1  UNL1        0.2888
     36 C          67.4292   94.7327    9.3145 C.3     1  UNL1        0.4366
     37 F          68.0320   95.9310    8.6432 F       1  UNL1       -0.1663
     38 F          67.0845   95.5743   10.5073 F       1  UNL1       -0.1663
     39 F          67.7739   93.8911    8.1217 F       1  UNL1       -0.1663
     40 C          67.5370   92.2141    9.9430 C.3     1  UNL1        0.1899
     41 O          68.8903   92.0700   10.5735 O.3     1  UNL1       -0.3783
     42 H          69.5315   92.6151   10.0911 H       1  UNL1        0.2106
@<TRIPOS>UNITY_ATOM_ATTR
3 1
charge 1
4 1
charge -1
@<TRIPOS>BOND
     1    19    20    1
     2    20    21    1
     3    20    22    1
     4    20    13    1
     5    13    14   ar
     6    14    15   ar
     7    15    16   ar
     8    16    17   ar
     9    17    12    1
    10    12    10    1
    11     1    10    1
    12     1     2    1
    13     2     3    1
    14     3     4    2
    15     3     5    1
    16     5     6    1
    17     6    23    1
    18    23    24    1
    19    24    25   ar
    20    25    26   ar
    21    26    27    1
    22    26    28   ar
    23    28    29    1
    24    28    30   ar
    25    30    34    1
    26    34    35    1
    27    35    40    1
    28    40    41    1
    29    35    36    1
    30    36    37    1
    31    36    38    1
    32    36    39    1
    33    30    31   ar
    34     6     7    1
    35     7     8    1
    36    17    18   ar
    37    18    13   ar
    38     7     1    1
    39    31    24   ar
    40    10    11    1
    41    29    32    1
    42    29    33    1
    43    41    42    1
    44     8     9    1
