@<TRIPOS>MOLECULE
*****
 32 36 0 0 0
SMALL
GASTEIGER

@<TRIPOS>ATOM
      1 O          64.2314   92.4886   10.4271 O.2     1  UNL1       -0.2695
      2 C          65.0173   92.2771   11.6871 C.2     1  UNL1        0.2538
      3 N          66.1561   93.1935   12.0235 N.am    1  UNL1       -0.2400
      4 C          66.9419   92.9818   13.2836 C.ar    1  UNL1        0.1482
      5 N          66.5114   93.6478   14.5568 N.ar    1  UNL1       -0.2279
      6 C          67.2972   93.4361   15.8168 C.ar    1  UNL1        0.1004
      7 C          68.5137   92.5586   15.8035 C.ar    1  UNL1        0.0216
      8 C          68.9442   91.8926   14.5303 C.ar    1  UNL1        0.0158
      9 C          68.1584   92.1043   13.2704 C.ar    1  UNL1        0.0896
     10 CL         68.5890   91.4383   11.9971 Cl      1  UNL1       -0.0793
     11 C          66.5091   94.3215   11.0999 C.3     1  UNL1        0.0972
     12 C          67.2473   94.0431    9.8241 C.3     1  UNL1        0.0231
     13 C          67.6003   95.1710    8.9004 C.3     1  UNL1        0.0188
     14 C          67.2151   96.5772    9.2526 C.3     1  UNL1        0.0687
     15 N          66.4769   96.8556   10.5283 N.3     1  UNL1       -0.2961
     16 C          66.1239   95.7277   11.4520 C.3     1  UNL1        0.0890
     17 H          65.6007   97.3088   10.2687 H       1  UNL1        0.1233
     18 C          64.6642   91.1491   12.6107 C.ar    1  UNL1        0.0540
     19 C          63.8810   89.9770   12.0980 C.ar    1  UNL1        0.0061
     20 C          63.5280   88.8490   13.0215 C.ar    1  UNL1        0.0194
     21 C          63.9582   88.8931   14.4579 C.ar    1  UNL1        0.0861
     22 C          64.7414   90.0651   14.9706 C.ar    1  UNL1        0.0194
     23 C          65.0944   91.1931   14.0470 C.ar    1  UNL1        0.0061
     24 N          63.6052   87.7651   15.3815 N.ar    1  UNL1       -0.1930
     25 N          63.0871   87.9019   16.7825 N.ar    1  UNL1       -0.0582
     26 N          62.8700   86.5236   17.3331 N.ar    1  UNL1       -0.1268
     27 C          63.2539   85.5349   16.2723 C.ar    1  UNL1        0.1402
     28 C          63.2483   84.0351   16.2488 C.ar    1  UNL1        0.0257
     29 C          63.6972   83.3027   15.0192 C.ar    1  UNL1        0.0224
     30 C          64.1515   84.0700   13.8131 C.ar    1  UNL1        0.1007
     31 N          64.1571   85.5697   13.8365 N.ar    1  UNL1       -0.2236
     32 C          63.7082   86.3022   15.0661 C.ar    1  UNL1        0.1848
@<TRIPOS>BOND
     1     1     2    2
     2     2    18    1
     3    18    19   ar
     4    19    20   ar
     5    20    21   ar
     6    21    24    1
     7    24    25   ar
     8    25    26   ar
     9    26    27   ar
    10    27    28   ar
    11    28    29   ar
    12    29    30   ar
    13    30    31   ar
    14    31    32   ar
    15    21    22   ar
    16    22    23   ar
    17     2     3   am
    18     3     4    1
    19     4     5   ar
    20     5     6   ar
    21     6     7   ar
    22     7     8   ar
    23     8     9   ar
    24     9    10    1
    25    11     3    1
    26    11    12    1
    27    12    13    1
    28    13    14    1
    29    14    15    1
    30    15    16    1
    31    23    18   ar
    32     9     4   ar
    33    16    11    1
    34    32    24   ar
    35    32    27   ar
    36    15    17    1
@<TRIPOS>MOLECULE
*****
 32 36 0 0 0
SMALL
GASTEIGER

@<TRIPOS>ATOM
      1 O          65.3602   90.7882   15.4013 O.2     1  UNL1       -0.2695
      2 C          65.4264   91.2641   13.9804 C.2     1  UNL1        0.2538
      3 N          66.4742   92.2558   13.5695 N.am    1  UNL1       -0.2400
      4 C          66.5403   92.7317   12.1486 C.ar    1  UNL1        0.1482
      5 N          65.5560   93.7486   11.6516 N.ar    1  UNL1       -0.2279
      6 C          65.6222   94.2244   10.2307 C.ar    1  UNL1        0.1004
      7 C          66.6726   93.6833    9.3067 C.ar    1  UNL1        0.0216
      8 C          67.6569   92.6664    9.8036 C.ar    1  UNL1        0.0158
      9 C          67.5907   92.1906   11.2246 C.ar    1  UNL1        0.0896
     10 CL         68.5750   91.1736   11.7215 Cl      1  UNL1       -0.0793
     11 C          67.4558   92.7715   14.5798 C.3     1  UNL1        0.0972
     12 C          68.3535   91.8162   15.3087 C.3     1  UNL1        0.0231
     13 C          69.3351   92.3318   16.3189 C.3     1  UNL1        0.0188
     14 C          69.4190   93.8028   16.6001 C.3     1  UNL1        0.0687
     15 N          68.5212   94.7581   15.8712 N.3     1  UNL1       -0.2961
     16 C          67.5396   94.2425   14.8610 C.3     1  UNL1        0.0890
     17 H          69.1273   95.4175   15.3829 H       1  UNL1        0.1233
     18 C          64.4447   90.7483   12.9702 C.ar    1  UNL1        0.0540
     19 C          63.8446   89.3838   13.1365 C.ar    1  UNL1        0.0061
     20 C          62.8629   88.8680   12.1264 C.ar    1  UNL1        0.0194
     21 C          62.4815   89.7169   10.9499 C.ar    1  UNL1        0.0861
     22 C          63.0816   91.0814   10.7837 C.ar    1  UNL1        0.0194
     23 C          64.0633   91.5972   11.7938 C.ar    1  UNL1        0.0061
     24 N          61.4998   89.2011    9.9398 N.ar    1  UNL1       -0.1930
     25 N          60.2748   89.9182    9.4548 N.ar    1  UNL1       -0.0582
     26 N          59.5888   89.0379    8.4526 N.ar    1  UNL1       -0.1268
     27 C          60.3898   87.7768    8.3181 C.ar    1  UNL1        0.1402
     28 C          60.1962   86.5496    7.4776 C.ar    1  UNL1        0.0257
     29 C          61.1837   85.4234    7.5561 C.ar    1  UNL1        0.0224
     30 C          62.3648   85.5242    8.4753 C.ar    1  UNL1        0.1007
     31 N          62.5584   86.7513    9.3159 N.ar    1  UNL1       -0.2236
     32 C          61.5708   87.8776    9.2373 C.ar    1  UNL1        0.1848
@<TRIPOS>BOND
     1     1     2    2
     2     2    18    1
     3    18    19   ar
     4    19    20   ar
     5    20    21   ar
     6    21    24    1
     7    24    25   ar
     8    25    26   ar
     9    26    27   ar
    10    27    28   ar
    11    28    29   ar
    12    29    30   ar
    13    30    31   ar
    14    31    32   ar
    15    21    22   ar
    16    22    23   ar
    17     2     3   am
    18     3     4    1
    19     4     5   ar
    20     5     6   ar
    21     6     7   ar
    22     7     8   ar
    23     8     9   ar
    24     9    10    1
    25    11     3    1
    26    11    12    1
    27    12    13    1
    28    13    14    1
    29    14    15    1
    30    15    16    1
    31    23    18   ar
    32     9     4   ar
    33    16    11    1
    34    32    24   ar
    35    32    27   ar
    36    15    17    1
@<TRIPOS>MOLECULE
*****
 32 36 0 0 0
SMALL
GASTEIGER

@<TRIPOS>ATOM
      1 O          66.0814   93.0575   11.9632 O.2     1  UNL1       -0.2695
      2 C          65.3375   91.9363   12.6263 C.2     1  UNL1        0.2538
      3 N          65.6600   91.5554   14.0408 N.am    1  UNL1       -0.2400
      4 C          64.9161   90.4342   14.7038 C.ar    1  UNL1        0.1482
      5 N          65.1192   89.0221   14.2404 N.ar    1  UNL1       -0.2279
      6 C          64.3753   87.9010   14.9034 C.ar    1  UNL1        0.1004
      7 C          63.4283   88.1919   16.0297 C.ar    1  UNL1        0.0216
      8 C          63.2252   89.6041   16.4931 C.ar    1  UNL1        0.0158
      9 C          63.9691   90.7252   15.8301 C.ar    1  UNL1        0.0896
     10 CL         63.7660   92.1373   16.2934 Cl      1  UNL1       -0.0793
     11 C          66.7263   92.2958   14.7923 C.3     1  UNL1        0.0972
     12 C          67.7964   91.5364   15.5190 C.3     1  UNL1        0.0231
     13 C          68.8628   92.2767   16.2706 C.3     1  UNL1        0.0188
     14 C          68.8590   93.7764   16.2954 C.3     1  UNL1        0.0687
     15 N          67.7889   94.5359   15.5687 N.3     1  UNL1       -0.2961
     16 C          66.7225   93.7956   14.8172 C.3     1  UNL1        0.0890
     17 H          68.2613   95.1372   14.8937 H       1  UNL1        0.1233
     18 C          64.2712   91.1960   11.8747 C.ar    1  UNL1        0.0540
     19 C          63.5645   90.0403   12.5188 C.ar    1  UNL1        0.0061
     20 C          62.4982   89.3000   11.7672 C.ar    1  UNL1        0.0194
     21 C          62.1385   89.7154   10.3714 C.ar    1  UNL1        0.0861
     22 C          62.8453   90.8710    9.7273 C.ar    1  UNL1        0.0194
     23 C          63.9116   91.6113   10.4789 C.ar    1  UNL1        0.0061
     24 N          61.0722   88.9751    9.6198 N.ar    1  UNL1       -0.1930
     25 N          59.6582   89.4322    9.4161 N.ar    1  UNL1       -0.0582
     26 N          58.9448   88.3872    8.6104 N.ar    1  UNL1       -0.1268
     27 C          59.9179   87.2843    8.3161 C.ar    1  UNL1        0.1402
     28 C          59.7767   85.9962    7.5607 C.ar    1  UNL1        0.0257
     29 C          60.9503   85.0714    7.4291 C.ar    1  UNL1        0.0224
     30 C          62.2651   85.4347    8.0530 C.ar    1  UNL1        0.1007
     31 N          62.4064   86.7228    8.8084 N.ar    1  UNL1       -0.2236
     32 C          61.2328   87.6476    8.9400 C.ar    1  UNL1        0.1848
@<TRIPOS>BOND
     1     1     2    2
     2     2    18    1
     3    18    19   ar
     4    19    20   ar
     5    20    21   ar
     6    21    24    1
     7    24    25   ar
     8    25    26   ar
     9    26    27   ar
    10    27    28   ar
    11    28    29   ar
    12    29    30   ar
    13    30    31   ar
    14    31    32   ar
    15    21    22   ar
    16    22    23   ar
    17     2     3   am
    18     3     4    1
    19     4     5   ar
    20     5     6   ar
    21     6     7   ar
    22     7     8   ar
    23     8     9   ar
    24     9    10    1
    25    11     3    1
    26    11    12    1
    27    12    13    1
    28    13    14    1
    29    14    15    1
    30    15    16    1
    31    23    18   ar
    32     9     4   ar
    33    16    11    1
    34    32    24   ar
    35    32    27   ar
    36    15    17    1
