@<TRIPOS>MOLECULE
*****
 58 64 0 0 0
SMALL
GASTEIGER

@<TRIPOS>ATOM
      1 N          59.3145   95.6529   -4.5524 N.3     1  UNL1       -0.1862
      2 C          60.4851   95.7545   -5.4847 C.3     1  UNL1        0.1775
      3 C          61.8817   95.7576   -4.9375 C.2     1  UNL1        0.2452
      4 O          63.0524   95.8592   -5.8699 O.2     1  UNL1       -0.2732
      5 N          62.1077   95.6590   -3.4579 N.am    1  UNL1       -0.2541
      6 C          63.5043   95.6621   -2.9107 C.3     1  UNL1        0.1577
      7 C          63.7303   95.5635   -1.4311 C.2     1  UNL1        0.2445
      8 O          65.1269   95.5666   -0.8839 O.2     1  UNL1       -0.2731
      9 N          62.5597   95.4619   -0.4987 N.am    1  UNL1       -0.2705
     10 C          61.1631   95.4588   -1.0459 C.3     1  UNL1        0.1359
     11 C          60.9371   95.5574   -2.5256 C.3     1  UNL1        0.1908
     12 N          59.5405   95.5543   -3.0728 N.am    1  UNL1       -0.1863
     13 C          58.3698   95.4527   -2.1404 C.2     1  UNL1        0.3191
     14 O          58.5958   95.3541   -0.6608 O.2     1  UNL1       -0.2512
     15 N          56.9732   95.4497   -2.6876 N.am    1  UNL1       -0.2836
     16 H          56.8249   95.5144   -3.6587 H       1  UNL1        0.1513
     17 C          57.9179   95.6499   -5.0996 C.3     1  UNL1        0.1188
     18 C          57.4102   93.1147   -5.3544 C.2     1  UNL1       -0.0034
     19 C          57.4418   94.4978   -5.9339 C.2     1  UNL1       -0.0071
     20 C          64.6749   95.7637   -3.8430 C.3     1  UNL1        0.0556
     21 C          65.0165   94.6156   -4.7459 C.ar    1  UNL1       -0.0198
     22 C          64.5538   93.2301   -4.4052 C.ar    1  UNL1       -0.0011
     23 C          64.8954   92.0820   -5.3081 C.ar    1  UNL1        0.0363
     24 C          65.6997   92.3195   -6.5517 C.ar    1  UNL1        0.1337
     25 O          66.0413   91.1714   -7.4546 O.3     1  UNL1       -0.5055
     26 C          66.1625   93.7051   -6.8925 C.ar    1  UNL1        0.0363
     27 C          65.8209   94.8532   -5.9896 C.ar    1  UNL1       -0.0011
     28 H          65.7522   90.3059   -7.2418 H       1  UNL1        0.2922
     29 C          62.7857   95.3633    0.9809 C.3     1  UNL1        0.1217
     30 C          62.8001   94.0206    1.6496 C.ar    1  UNL1        0.0135
     31 C          63.9696   93.1008    1.4599 C.ar    1  UNL1       -0.0012
     32 C          63.9841   91.7582    2.1285 C.ar    1  UNL1       -0.0002
     33 C          62.8289   91.3354    2.9869 C.ar    1  UNL1        0.0016
     34 C          61.6593   92.2553    3.1767 C.ar    1  UNL1        0.0214
     35 C          60.3873   92.1133    3.9588 C.ar    1  UNL1        0.0733
     36 C          59.5868   93.3682    3.7735 C.ar    1  UNL1        0.0805
     37 N          60.3640   94.2857    2.8769 N.ar    1  UNL1       -0.3241
     38 C          59.9355   95.6512    2.4279 C.3     1  UNL1        0.1305
     39 C          61.6449   93.5979    2.5080 C.ar    1  UNL1        0.0577
     40 C          59.9863   90.9250    4.7818 C.2     1  UNL1        0.2628
     41 O          60.9037   89.7432    4.8895 O.2     1  UNL1       -0.2686
     42 N          58.6678   90.9186    5.4971 N.am    1  UNL1       -0.2324
     43 H          58.0657   91.6943    5.4263 H       1  UNL1        0.1730
     44 N          58.2667   89.7304    6.3200 N.pl3   1  UNL1       -0.2630
     45 H          57.3688   89.3402    6.2162 H       1  UNL1        0.1700
     46 C          59.2336   89.1367    7.3011 C.ar    1  UNL1        0.0611
     47 C          59.9735   90.0254    8.2565 C.ar    1  UNL1        0.0158
     48 C          60.9403   89.4317    9.2376 C.ar    1  UNL1        0.0013
     49 C          61.1674   87.9492    9.2633 C.ar    1  UNL1        0.0001
     50 C          60.4275   87.0604    8.3080 C.ar    1  UNL1        0.0013
     51 C          59.4606   87.6542    7.3269 C.ar    1  UNL1        0.0158
     52 C          55.8026   95.3480   -1.7553 C.3     1  UNL1        0.1177
     53 C          54.4294   95.7173   -2.2326 C.ar    1  UNL1       -0.0025
     54 C          54.1292   95.7483   -3.7019 C.ar    1  UNL1       -0.0026
     55 C          52.7559   96.1176   -4.1792 C.ar    1  UNL1       -0.0003
     56 C          51.6829   96.4558   -3.1873 C.ar    1  UNL1       -0.0000
     57 C          51.9830   96.4249   -1.7179 C.ar    1  UNL1       -0.0003
     58 C          53.3563   96.0556   -1.2405 C.ar    1  UNL1       -0.0026
@<TRIPOS>BOND
     1    18    19    2
     2    19    17    1
     3    17     1    1
     4     1     2    1
     5     2     3    1
     6     3     4    2
     7     3     5   am
     8     5     6    1
     9     6    20    1
    10    20    21    1
    11    21    22   ar
    12    22    23   ar
    13    23    24   ar
    14    24    25    1
    15    24    26   ar
    16    26    27   ar
    17     6     7    1
    18     7     8    2
    19     7     9   am
    20     9    29    1
    21    29    30    1
    22    30    31   ar
    23    31    32   ar
    24    32    33   ar
    25    33    34   ar
    26    34    35   ar
    27    35    40    1
    28    40    41    2
    29    40    42   am
    30    42    44    1
    31    44    46    1
    32    46    47   ar
    33    47    48   ar
    34    48    49   ar
    35    49    50   ar
    36    50    51   ar
    37    35    36   ar
    38    36    37   ar
    39    37    38    1
    40    37    39   ar
    41     9    10    1
    42    11    10    1
    43    11    12    1
    44    12    13   am
    45    13    14    2
    46    13    15   am
    47    15    52    1
    48    52    53    1
    49    53    54   ar
    50    54    55   ar
    51    55    56   ar
    52    56    57   ar
    53    57    58   ar
    54    12     1    1
    55    58    53   ar
    56    11     5    1
    57    27    21   ar
    58    39    30   ar
    59    39    34   ar
    60    51    46   ar
    61    25    28    1
    62    42    43    1
    63    44    45    1
    64    15    16    1
@<TRIPOS>MOLECULE
*****
 58 64 0 0 0
SMALL
GASTEIGER

@<TRIPOS>ATOM
      1 N          65.3478   89.3928   14.6350 N.3     1  UNL1       -0.1862
      2 C          65.5476   88.1505   15.4516 C.3     1  UNL1        0.1775
      3 C          64.8161   86.8912   15.0924 C.2     1  UNL1        0.2452
      4 O          65.0159   85.6489   15.9091 O.2     1  UNL1       -0.2732
      5 N          63.8849   86.8741   13.9166 N.am    1  UNL1       -0.2541
      6 C          63.1535   85.6147   13.5574 C.3     1  UNL1        0.1577
      7 C          62.2223   85.5976   12.3816 C.2     1  UNL1        0.2445
      8 O          61.4909   84.3383   12.0224 O.2     1  UNL1       -0.2731
      9 N          62.0226   86.8399   11.5649 N.am    1  UNL1       -0.2705
     10 C          62.7540   88.0993   11.9241 C.3     1  UNL1        0.1359
     11 C          63.6852   88.1163   13.1000 C.3     1  UNL1        0.1908
     12 N          64.4167   89.3757   13.4592 N.am    1  UNL1       -0.1863
     13 C          64.2169   90.6180   12.6425 C.2     1  UNL1        0.3191
     14 O          63.2858   90.6008   11.4667 O.2     1  UNL1       -0.2512
     15 N          64.9484   91.8773   13.0017 N.am    1  UNL1       -0.2836
     16 H          65.5595   91.8885   13.7734 H       1  UNL1        0.1513
     17 C          66.0793   90.6521   14.9942 C.3     1  UNL1        0.1188
     18 C          68.0969   92.2322   14.5671 C.2     1  UNL1       -0.0034
     19 C          67.4872   90.8625   14.5216 C.2     1  UNL1       -0.0071
     20 C          63.3532   84.3725   14.3741 C.3     1  UNL1        0.0556
     21 C          63.1569   83.0237   13.7479 C.ar    1  UNL1       -0.0198
     22 C          62.1184   82.0881   14.2919 C.ar    1  UNL1       -0.0011
     23 C          61.9221   80.7393   13.6657 C.ar    1  UNL1        0.0363
     24 C          62.7645   80.3260   12.4954 C.ar    1  UNL1        0.1337
     25 O          62.5682   78.9772   11.8692 O.3     1  UNL1       -0.5055
     26 C          63.8031   81.2616   11.9513 C.ar    1  UNL1        0.0363
     27 C          63.9994   82.6104   12.5775 C.ar    1  UNL1       -0.0011
     28 H          61.9194   78.3928   12.2091 H       1  UNL1        0.2922
     29 C          61.0914   86.8228   10.3891 C.3     1  UNL1        0.1217
     30 C          60.5221   88.1076    9.8644 C.ar    1  UNL1        0.0135
     31 C          60.3250   89.2731   10.7880 C.ar    1  UNL1       -0.0012
     32 C          59.7558   90.5578   10.2633 C.ar    1  UNL1       -0.0002
     33 C          59.3837   90.6772    8.8152 C.ar    1  UNL1        0.0016
     34 C          59.5808   89.5118    7.8916 C.ar    1  UNL1        0.0214
     35 C          59.3088   89.3344    6.4272 C.ar    1  UNL1        0.0733
     36 C          59.7099   87.9400    6.0468 C.ar    1  UNL1        0.0805
     37 N          60.2298   87.2556    7.2761 N.ar    1  UNL1       -0.3241
     38 C          60.7400   85.8471    7.3519 C.3     1  UNL1        0.1305
     39 C          60.1500   88.2270    8.4163 C.ar    1  UNL1        0.0577
     40 C          58.7362   90.3698    5.5051 C.2     1  UNL1        0.2628
     41 O          57.2501   90.4846    5.3368 O.2     1  UNL1       -0.2686
     42 N          59.6497   91.2903    4.7513 N.am    1  UNL1       -0.2324
     43 H          60.6250   91.2149    4.8618 H       1  UNL1        0.1730
     44 N          59.0771   92.3256    3.8292 N.pl3   1  UNL1       -0.2630
     45 H          58.2060   92.7372    4.0315 H       1  UNL1        0.1700
     46 C          59.8318   92.7337    2.5988 C.ar    1  UNL1        0.0611
     47 C          59.0883   93.0711    1.3404 C.ar    1  UNL1        0.0158
     48 C          59.8430   93.4792    0.1100 C.ar    1  UNL1        0.0013
     49 C          61.3411   93.5500    0.1379 C.ar    1  UNL1        0.0001
     50 C          62.0845   93.2126    1.3963 C.ar    1  UNL1        0.0013
     51 C          61.3299   92.8044    2.6267 C.ar    1  UNL1        0.0158
     52 C          64.7487   93.1195   12.1851 C.3     1  UNL1        0.1177
     53 C          65.7906   93.5391   11.1909 C.ar    1  UNL1       -0.0025
     54 C          66.7474   92.5266   10.6347 C.ar    1  UNL1       -0.0026
     55 C          67.7893   92.9462    9.6405 C.ar    1  UNL1       -0.0003
     56 C          67.8744   94.3783    9.2026 C.ar    1  UNL1       -0.0000
     57 C          66.9176   95.3909    9.7588 C.ar    1  UNL1       -0.0003
     58 C          65.8757   94.9713   10.7529 C.ar    1  UNL1       -0.0026
@<TRIPOS>BOND
     1    18    19    2
     2    19    17    1
     3    17     1    1
     4     1     2    1
     5     2     3    1
     6     3     4    2
     7     3     5   am
     8     5     6    1
     9     6    20    1
    10    20    21    1
    11    21    22   ar
    12    22    23   ar
    13    23    24   ar
    14    24    25    1
    15    24    26   ar
    16    26    27   ar
    17     6     7    1
    18     7     8    2
    19     7     9   am
    20     9    29    1
    21    29    30    1
    22    30    31   ar
    23    31    32   ar
    24    32    33   ar
    25    33    34   ar
    26    34    35   ar
    27    35    40    1
    28    40    41    2
    29    40    42   am
    30    42    44    1
    31    44    46    1
    32    46    47   ar
    33    47    48   ar
    34    48    49   ar
    35    49    50   ar
    36    50    51   ar
    37    35    36   ar
    38    36    37   ar
    39    37    38    1
    40    37    39   ar
    41     9    10    1
    42    11    10    1
    43    11    12    1
    44    12    13   am
    45    13    14    2
    46    13    15   am
    47    15    52    1
    48    52    53    1
    49    53    54   ar
    50    54    55   ar
    51    55    56   ar
    52    56    57   ar
    53    57    58   ar
    54    12     1    1
    55    58    53   ar
    56    11     5    1
    57    27    21   ar
    58    39    30   ar
    59    39    34   ar
    60    51    46   ar
    61    25    28    1
    62    42    43    1
    63    44    45    1
    64    15    16    1
@<TRIPOS>MOLECULE
*****
 58 64 0 0 0
SMALL
GASTEIGER

@<TRIPOS>ATOM
      1 N          61.2948   85.5068    8.3215 N.3     1  UNL1       -0.1862
      2 C          62.1329   84.3151    8.6784 C.3     1  UNL1        0.1775
      3 C          62.8875   84.2900    9.9745 C.2     1  UNL1        0.2452
      4 O          63.7256   83.0982   10.3314 O.2     1  UNL1       -0.2732
      5 N          62.8040   85.4565   10.9137 N.am    1  UNL1       -0.2541
      6 C          63.5586   85.4313   12.2099 C.3     1  UNL1        0.1577
      7 C          63.4751   86.5978   13.1491 C.2     1  UNL1        0.2445
      8 O          64.2297   86.5727   14.4452 O.2     1  UNL1       -0.2731
      9 N          62.6370   87.7896   12.7922 N.am    1  UNL1       -0.2705
     10 C          61.8824   87.8148   11.4961 C.3     1  UNL1        0.1359
     11 C          61.9659   86.6482   10.5568 C.3     1  UNL1        0.1908
     12 N          61.2113   86.6734    9.2607 N.am    1  UNL1       -0.1863
     13 C          60.3732   87.8652    8.9038 C.2     1  UNL1        0.3191
     14 O          60.2897   89.0317    9.8431 O.2     1  UNL1       -0.2512
     15 N          59.6186   87.8903    7.6077 N.am    1  UNL1       -0.2836
     16 H          59.6734   87.1247    6.9913 H       1  UNL1        0.1513
     17 C          60.5402   85.5320    7.0254 C.3     1  UNL1        0.1188
     18 C          62.0025   84.3114    5.2585 C.2     1  UNL1       -0.0034
     19 C          60.7213   84.4242    6.0304 C.2     1  UNL1       -0.0071
     20 C          64.3966   84.2396   12.5668 C.3     1  UNL1        0.0556
     21 C          63.7399   82.9695   13.0202 C.ar    1  UNL1       -0.0198
     22 C          62.3086   82.9839   13.4685 C.ar    1  UNL1       -0.0011
     23 C          61.6519   81.7138   13.9219 C.ar    1  UNL1        0.0363
     24 C          62.4264   80.4293   13.9270 C.ar    1  UNL1        0.1337
     25 O          61.7697   79.1592   14.3804 O.3     1  UNL1       -0.5055
     26 C          63.8578   80.4149   13.4786 C.ar    1  UNL1        0.0363
     27 C          64.5146   81.6850   13.0252 C.ar    1  UNL1       -0.0011
     28 H          60.8756   79.1682   14.6604 H       1  UNL1        0.2922
     29 C          62.5535   88.9562   13.7315 C.3     1  UNL1        0.1217
     30 C          63.6139   90.0169   13.7061 C.ar    1  UNL1        0.0135
     31 C          64.5205   90.1994   14.8871 C.ar    1  UNL1       -0.0012
     32 C          65.5808   91.2600   14.8618 C.ar    1  UNL1       -0.0002
     33 C          65.7345   92.1382   13.6555 C.ar    1  UNL1        0.0016
     34 C          64.8279   91.9556   12.4745 C.ar    1  UNL1        0.0214
     35 C          64.7422   92.6654   11.1558 C.ar    1  UNL1        0.0733
     36 C          63.6289   92.0433   10.3662 C.ar    1  UNL1        0.0805
     37 N          63.0266   90.9492   11.1968 N.ar    1  UNL1       -0.3241
     38 C          61.8838   90.0646   10.7949 C.3     1  UNL1        0.1305
     39 C          63.7676   90.8950   12.4998 C.ar    1  UNL1        0.0577
     40 C          65.6164   93.7983   10.7058 C.2     1  UNL1        0.2628
     41 O          66.8588   93.5180    9.9134 O.2     1  UNL1       -0.2686
     42 N          65.2481   95.2115   11.0482 N.am    1  UNL1       -0.2324
     43 H          64.4327   95.3955   11.5682 H       1  UNL1        0.1730
     44 N          66.1222   96.3444   10.5982 N.pl3   1  UNL1       -0.2630
     45 H          66.4881   96.9761   11.2587 H       1  UNL1        0.1700
     46 C          66.4387   96.5149    9.1420 C.ar    1  UNL1        0.0611
     47 C          67.8667   96.5572    8.6848 C.ar    1  UNL1        0.0158
     48 C          68.1832   96.7277    7.2285 C.ar    1  UNL1        0.0013
     49 C          67.0718   96.8559    6.2294 C.ar    1  UNL1        0.0001
     50 C          65.6438   96.8136    6.6866 C.ar    1  UNL1        0.0013
     51 C          65.3272   96.6431    8.1429 C.ar    1  UNL1        0.0158
     52 C          58.7805   89.0820    7.2508 C.3     1  UNL1        0.1177
     53 C          59.2260   90.0134    6.1626 C.ar    1  UNL1       -0.0025
     54 C          60.6658   90.0426    5.7432 C.ar    1  UNL1       -0.0026
     55 C          61.1112   90.9740    4.6550 C.ar    1  UNL1       -0.0003
     56 C          60.1168   91.8762    3.9863 C.ar    1  UNL1       -0.0000
     57 C          58.6769   91.8470    4.4058 C.ar    1  UNL1       -0.0003
     58 C          58.2315   90.9156    5.4939 C.ar    1  UNL1       -0.0026
@<TRIPOS>BOND
     1    18    19    2
     2    19    17    1
     3    17     1    1
     4     1     2    1
     5     2     3    1
     6     3     4    2
     7     3     5   am
     8     5     6    1
     9     6    20    1
    10    20    21    1
    11    21    22   ar
    12    22    23   ar
    13    23    24   ar
    14    24    25    1
    15    24    26   ar
    16    26    27   ar
    17     6     7    1
    18     7     8    2
    19     7     9   am
    20     9    29    1
    21    29    30    1
    22    30    31   ar
    23    31    32   ar
    24    32    33   ar
    25    33    34   ar
    26    34    35   ar
    27    35    40    1
    28    40    41    2
    29    40    42   am
    30    42    44    1
    31    44    46    1
    32    46    47   ar
    33    47    48   ar
    34    48    49   ar
    35    49    50   ar
    36    50    51   ar
    37    35    36   ar
    38    36    37   ar
    39    37    38    1
    40    37    39   ar
    41     9    10    1
    42    11    10    1
    43    11    12    1
    44    12    13   am
    45    13    14    2
    46    13    15   am
    47    15    52    1
    48    52    53    1
    49    53    54   ar
    50    54    55   ar
    51    55    56   ar
    52    56    57   ar
    53    57    58   ar
    54    12     1    1
    55    58    53   ar
    56    11     5    1
    57    27    21   ar
    58    39    30   ar
    59    39    34   ar
    60    51    46   ar
    61    25    28    1
    62    42    43    1
    63    44    45    1
    64    15    16    1
