@<TRIPOS>MOLECULE
*****
 45 48 0 0 0
SMALL
GASTEIGER

@<TRIPOS>ATOM
      1 N          59.5824   88.5334    7.8356 N.am    1  UNL1       -0.2724
      2 C          60.3154   88.9656    9.0709 C.2     1  UNL1        0.2491
      3 O          60.1308   90.3550    9.6050 O.2     1  UNL1       -0.2727
      4 C          59.7671   87.1438    7.3015 C.3     1  UNL1        0.1111
      5 C          60.4681   86.1087    8.1303 C.3     1  UNL1        0.0939
      6 N          61.5960   85.3143    7.5415 N.3     1  UNL1       -0.2712
      7 C          63.5896   84.2721    8.8412 C.3     1  UNL1        0.0188
      8 C          62.9767   85.4330    8.1156 C.3     1  UNL1        0.0722
      9 C          61.3432   84.4012    6.3786 C.3     1  UNL1        0.0722
     10 C          62.3376   84.3205    5.2584 C.3     1  UNL1        0.0188
     11 C          58.6648   89.4906    7.1345 C.3     1  UNL1        0.1202
     12 C          59.1846   90.3455    6.0168 C.ar    1  UNL1       -0.0023
     13 C          58.2517   91.2517    5.2695 C.ar    1  UNL1       -0.0026
     14 C          58.7715   92.1065    4.1519 C.ar    1  UNL1       -0.0003
     15 C          60.2242   92.0551    3.7816 C.ar    1  UNL1       -0.0000
     16 C          61.1570   91.1488    4.5288 C.ar    1  UNL1       -0.0003
     17 C          60.6372   90.2940    5.6464 C.ar    1  UNL1       -0.0026
     18 C          60.7440   92.9099    2.6639 C.ar    1  UNL1       -0.0000
     19 C          59.8159   93.8338    1.9324 C.ar    1  UNL1       -0.0001
     20 C          60.3357   94.6887    0.8147 C.ar    1  UNL1        0.0039
     21 C          61.7835   94.6196    0.4286 C.ar    1  UNL1        0.0714
     22 C          62.7115   93.6956    1.1601 C.ar    1  UNL1        0.0039
     23 C          62.1917   92.8408    2.2777 C.ar    1  UNL1       -0.0001
     24 C          62.3033   95.4744   -0.6890 C.3     1  UNL1        0.4186
     25 F          62.8231   96.3291   -1.8066 F       1  UNL1       -0.1659
     26 F          61.0129   96.2389   -0.7044 F       1  UNL1       -0.1659
     27 F          63.5937   94.7098   -0.6736 F       1  UNL1       -0.1659
     28 C          61.2331   88.0082    9.7720 C.3     1  UNL1        0.1934
     29 N          62.1298   88.4972   10.8705 N.ar    1  UNL1       -0.2979
     30 C          62.5077   89.9472   10.9407 C.ar    1  UNL1        0.0782
     31 C          63.4045   90.4362   12.0392 C.ar    1  UNL1        0.0532
     32 C          63.7824   91.8861   12.1095 C.3     1  UNL1        0.0377
     33 C          63.9234   89.4752   13.0676 C.ar    1  UNL1        0.2783
     34 O          64.8201   89.9642   14.1661 O.2     1  UNL1       -0.2654
     35 N          63.5455   88.0253   12.9973 N.ar    1  UNL1       -0.1847
     36 C          62.6487   87.5363   11.8988 C.ar    1  UNL1        0.1750
     37 S          62.2708   86.0864   11.8286 S.3     1  UNL1       -0.0724
     38 C          63.2866   85.0302   12.1489 C.3     1  UNL1        0.0913
     39 C          62.8388   83.6643   12.5774 C.ar    1  UNL1       -0.0108
     40 C          62.3112   83.4490   13.9649 C.ar    1  UNL1       -0.0011
     41 C          61.8633   82.0830   14.3935 C.ar    1  UNL1        0.0293
     42 C          61.9431   80.9324   13.4345 C.ar    1  UNL1        0.1401
     43 F          61.4952   79.5665   13.8630 F       1  UNL1       -0.2042
     44 C          62.4707   81.1477   12.0469 C.ar    1  UNL1        0.0293
     45 C          62.9186   82.5136   11.6184 C.ar    1  UNL1       -0.0011
@<TRIPOS>BOND
     1     7     8    1
     2     8     6    1
     3     6     9    1
     4     9    10    1
     5     6     5    1
     6     5     4    1
     7     4     1    1
     8     1    11    1
     9    11    12    1
    10    12    13   ar
    11    13    14   ar
    12    14    15   ar
    13    15    18    1
    14    18    19   ar
    15    19    20   ar
    16    20    21   ar
    17    21    24    1
    18    24    25    1
    19    24    26    1
    20    24    27    1
    21    21    22   ar
    22    22    23   ar
    23    15    16   ar
    24    16    17   ar
    25     1     2   am
    26     2     3    2
    27     2    28    1
    28    28    29    1
    29    29    30   ar
    30    30    31   ar
    31    31    32    1
    32    31    33   ar
    33    33    34    2
    34    33    35   ar
    35    35    36   ar
    36    36    37    1
    37    37    38    1
    38    38    39    1
    39    39    40   ar
    40    40    41   ar
    41    41    42   ar
    42    42    43    1
    43    42    44   ar
    44    44    45   ar
    45    17    12   ar
    46    36    29   ar
    47    45    39   ar
    48    23    18   ar
@<TRIPOS>MOLECULE
*****
 45 48 0 0 0
SMALL
GASTEIGER

@<TRIPOS>ATOM
      1 N          61.1871   86.3130   10.6219 N.am    1  UNL1       -0.2724
      2 C          62.0254   85.2304   10.0094 C.2     1  UNL1        0.2491
      3 O          61.5681   84.5470    8.7549 O.2     1  UNL1       -0.2727
      4 C          61.6444   86.9964   11.8765 C.3     1  UNL1        0.1111
      5 C          62.5124   88.2169   11.7920 C.3     1  UNL1        0.0939
      6 N          61.9206   89.5755   12.0243 N.3     1  UNL1       -0.2712
      7 C          59.5095   90.4773   11.6733 C.3     1  UNL1        0.0188
      8 C          60.5013   89.7054   12.4921 C.3     1  UNL1        0.0722
      9 C          62.7481   90.8042   11.7888 C.3     1  UNL1        0.0722
     10 C          63.1694   91.1691   10.3961 C.3     1  UNL1        0.0188
     11 C          59.8915   86.7122    9.9800 C.3     1  UNL1        0.1202
     12 C          59.8871   87.6979    8.8492 C.ar    1  UNL1       -0.0023
     13 C          60.4861   89.0599    9.0392 C.ar    1  UNL1       -0.0026
     14 C          60.4817   90.0454    7.9084 C.ar    1  UNL1       -0.0003
     15 C          59.8783   89.6690    6.5877 C.ar    1  UNL1       -0.0000
     16 C          59.2794   88.3070    6.3978 C.ar    1  UNL1       -0.0003
     17 C          59.2838   87.3214    7.5285 C.ar    1  UNL1       -0.0026
     18 C          59.8740   90.6546    5.4570 C.ar    1  UNL1       -0.0000
     19 C          61.1476   90.9656    4.7282 C.ar    1  UNL1       -0.0001
     20 C          61.1432   91.9513    3.5974 C.ar    1  UNL1        0.0039
     21 C          59.8651   92.6258    3.1955 C.ar    1  UNL1        0.0714
     22 C          58.5915   92.3147    3.9243 C.ar    1  UNL1        0.0039
     23 C          58.5959   91.3292    5.0550 C.ar    1  UNL1       -0.0001
     24 C          59.8607   93.6114    2.0648 C.3     1  UNL1        0.4186
     25 F          59.8563   94.5970    0.9341 F       1  UNL1       -0.1659
     26 F          60.1440   94.7223    3.0320 F       1  UNL1       -0.1659
     27 F          59.5774   92.5005    1.0975 F       1  UNL1       -0.1659
     28 C          63.3210   84.8312   10.6514 C.3     1  UNL1        0.1934
     29 N          63.3638   83.6624   11.5905 N.ar    1  UNL1       -0.2979
     30 C          62.9933   82.2935   11.1016 C.ar    1  UNL1        0.0782
     31 C          63.0361   81.1247   12.0408 C.ar    1  UNL1        0.0532
     32 C          62.6657   79.7558   11.5520 C.3     1  UNL1        0.0377
     33 C          63.4494   81.3247   13.4688 C.ar    1  UNL1        0.2783
     34 O          63.4922   80.1559   14.4080 O.2     1  UNL1       -0.2654
     35 N          63.8199   82.6936   13.9576 N.ar    1  UNL1       -0.1847
     36 C          63.7770   83.8624   13.0185 C.ar    1  UNL1        0.1750
     37 S          64.1475   85.2312   13.5073 S.3     1  UNL1       -0.0724
     38 C          64.0926   85.5445   14.9733 C.3     1  UNL1        0.0913
     39 C          63.8963   86.9594   15.4310 C.ar    1  UNL1       -0.0108
     40 C          64.3807   88.0965   14.5812 C.ar    1  UNL1       -0.0011
     41 C          64.1844   89.5115   15.0390 C.ar    1  UNL1        0.0293
     42 C          63.5037   89.7892   16.3465 C.ar    1  UNL1        0.1401
     43 F          63.3075   91.2040   16.8043 F       1  UNL1       -0.2042
     44 C          63.0194   88.6519   17.1963 C.ar    1  UNL1        0.0293
     45 C          63.2157   87.2370   16.7385 C.ar    1  UNL1       -0.0011
@<TRIPOS>BOND
     1     7     8    1
     2     8     6    1
     3     6     9    1
     4     9    10    1
     5     6     5    1
     6     5     4    1
     7     4     1    1
     8     1    11    1
     9    11    12    1
    10    12    13   ar
    11    13    14   ar
    12    14    15   ar
    13    15    18    1
    14    18    19   ar
    15    19    20   ar
    16    20    21   ar
    17    21    24    1
    18    24    25    1
    19    24    26    1
    20    24    27    1
    21    21    22   ar
    22    22    23   ar
    23    15    16   ar
    24    16    17   ar
    25     1     2   am
    26     2     3    2
    27     2    28    1
    28    28    29    1
    29    29    30   ar
    30    30    31   ar
    31    31    32    1
    32    31    33   ar
    33    33    34    2
    34    33    35   ar
    35    35    36   ar
    36    36    37    1
    37    37    38    1
    38    38    39    1
    39    39    40   ar
    40    40    41   ar
    41    41    42   ar
    42    42    43    1
    43    42    44   ar
    44    44    45   ar
    45    17    12   ar
    46    36    29   ar
    47    45    39   ar
    48    23    18   ar
@<TRIPOS>MOLECULE
*****
 45 48 0 0 0
SMALL
GASTEIGER

@<TRIPOS>ATOM
      1 N          61.5533   87.3145   11.3876 N.am    1  UNL1       -0.2724
      2 C          62.0347   88.4181   12.2823 C.2     1  UNL1        0.2491
      3 O          61.2064   89.6562   12.4583 O.2     1  UNL1       -0.2727
      4 C          62.3817   86.0764   11.2116 C.3     1  UNL1        0.1111
      5 C          62.0163   85.0731   10.1582 C.3     1  UNL1        0.0939
      6 N          63.0670   84.5493    9.2247 N.3     1  UNL1       -0.2712
      7 C          61.7805   85.0189    7.0168 C.3     1  UNL1        0.0188
      8 C          63.0680   84.9699    7.7848 C.3     1  UNL1        0.0722
      9 C          64.1168   83.6050    9.7309 C.3     1  UNL1        0.0722
     10 C          63.7167   82.3827   10.5029 C.3     1  UNL1        0.0188
     11 C          60.2435   87.4490   10.6691 C.3     1  UNL1        0.1202
     12 C          60.1548   88.2743    9.4196 C.ar    1  UNL1       -0.0023
     13 C          60.7954   89.6296    9.3689 C.ar    1  UNL1       -0.0026
     14 C          60.7066   90.4548    8.1194 C.ar    1  UNL1       -0.0003
     15 C          59.9773   89.9246    6.9207 C.ar    1  UNL1       -0.0000
     16 C          59.3367   88.5693    6.9714 C.ar    1  UNL1       -0.0003
     17 C          59.4254   87.7441    8.2209 C.ar    1  UNL1       -0.0026
     18 C          59.8885   90.7499    5.6712 C.ar    1  UNL1       -0.0000
     19 C          61.1275   91.0490    4.8804 C.ar    1  UNL1       -0.0001
     20 C          61.0388   91.8743    3.6309 C.ar    1  UNL1        0.0039
     21 C          59.7110   92.4003    3.1723 C.ar    1  UNL1        0.0714
     22 C          58.4720   92.1011    3.9632 C.ar    1  UNL1        0.0039
     23 C          58.5608   91.2759    5.2126 C.ar    1  UNL1       -0.0001
     24 C          59.6222   93.2255    1.9229 C.3     1  UNL1        0.4186
     25 F          59.5334   94.0508    0.6734 F       1  UNL1       -0.1659
     26 F          59.9932   94.4503    2.7054 F       1  UNL1       -0.1659
     27 F          59.2512   92.0008    1.1403 F       1  UNL1       -0.1659
     28 C          63.3446   88.2836   13.0008 C.3     1  UNL1        0.1934
     29 N          63.8793   89.4303   13.8065 N.ar    1  UNL1       -0.2979
     30 C          64.6976   90.4971   13.1414 C.ar    1  UNL1        0.0782
     31 C          65.2323   91.6438   13.9471 C.ar    1  UNL1        0.0532
     32 C          66.0506   92.7106   13.2820 C.3     1  UNL1        0.0377
     33 C          64.9486   91.7238   15.4179 C.ar    1  UNL1        0.2783
     34 O          65.4833   92.8705   16.2236 O.2     1  UNL1       -0.2654
     35 N          64.1303   90.6570   16.0829 N.ar    1  UNL1       -0.1847
     36 C          63.5957   89.5103   15.2772 C.ar    1  UNL1        0.1750
     37 S          62.7774   88.4435   15.9423 S.3     1  UNL1       -0.0724
     38 C          63.4566   87.2931   16.6244 C.3     1  UNL1        0.0913
     39 C          63.5961   85.9779   15.9168 C.ar    1  UNL1       -0.0108
     40 C          64.7609   85.7380   15.0026 C.ar    1  UNL1       -0.0011
     41 C          64.9004   84.4228   14.2949 C.ar    1  UNL1        0.0293
     42 C          63.8752   83.3475   14.5014 C.ar    1  UNL1        0.1401
     43 F          64.0147   82.0323   13.7937 F       1  UNL1       -0.2042
     44 C          62.7104   83.5874   15.4156 C.ar    1  UNL1        0.0293
     45 C          62.5709   84.9026   16.1233 C.ar    1  UNL1       -0.0011
@<TRIPOS>BOND
     1     7     8    1
     2     8     6    1
     3     6     9    1
     4     9    10    1
     5     6     5    1
     6     5     4    1
     7     4     1    1
     8     1    11    1
     9    11    12    1
    10    12    13   ar
    11    13    14   ar
    12    14    15   ar
    13    15    18    1
    14    18    19   ar
    15    19    20   ar
    16    20    21   ar
    17    21    24    1
    18    24    25    1
    19    24    26    1
    20    24    27    1
    21    21    22   ar
    22    22    23   ar
    23    15    16   ar
    24    16    17   ar
    25     1     2   am
    26     2     3    2
    27     2    28    1
    28    28    29    1
    29    29    30   ar
    30    30    31   ar
    31    31    32    1
    32    31    33   ar
    33    33    34    2
    34    33    35   ar
    35    35    36   ar
    36    36    37    1
    37    37    38    1
    38    38    39    1
    39    39    40   ar
    40    40    41   ar
    41    41    42   ar
    42    42    43    1
    43    42    44   ar
    44    44    45   ar
    45    17    12   ar
    46    36    29   ar
    47    45    39   ar
    48    23    18   ar
@<TRIPOS>MOLECULE
*****
 45 48 0 0 0
SMALL
GASTEIGER

@<TRIPOS>ATOM
      1 N          60.8346   87.6226   11.1621 N.am    1  UNL1       -0.2724
      2 C          60.5559   88.7902   12.0616 C.2     1  UNL1        0.2491
      3 O          59.3700   89.6710   11.8015 O.2     1  UNL1       -0.2727
      4 C          62.0206   86.7418   11.4223 C.3     1  UNL1        0.1111
      5 C          62.0014   85.3083   10.9810 C.3     1  UNL1        0.0939
      6 N          62.8994   84.8539    9.8688 N.3     1  UNL1       -0.2712
      7 C          64.1464   83.2006   11.4378 C.3     1  UNL1        0.0188
      8 C          63.7749   83.6503   10.0559 C.3     1  UNL1        0.0722
      9 C          62.9220   85.6031    8.5695 C.3     1  UNL1        0.0722
     10 C          62.4228   84.9466    7.3165 C.3     1  UNL1        0.0188
     11 C          59.9274   87.3357   10.0026 C.3     1  UNL1        0.1202
     12 C          59.9324   88.2389    8.8050 C.ar    1  UNL1       -0.0023
     13 C          59.0881   87.9058    7.6108 C.ar    1  UNL1       -0.0026
     14 C          59.0932   88.8090    6.4133 C.ar    1  UNL1       -0.0003
     15 C          59.9426   90.0453    6.4098 C.ar    1  UNL1       -0.0000
     16 C          60.7870   90.3784    7.6040 C.ar    1  UNL1       -0.0003
     17 C          60.7819   89.4752    8.8015 C.ar    1  UNL1       -0.0026
     18 C          59.9477   90.9485    5.2122 C.ar    1  UNL1       -0.0000
     19 C          61.2425   91.2923    4.5376 C.ar    1  UNL1       -0.0001
     20 C          61.2476   92.1955    3.3399 C.ar    1  UNL1        0.0039
     21 C          59.9578   92.7548    2.8169 C.ar    1  UNL1        0.0714
     22 C          58.6629   92.4109    3.4916 C.ar    1  UNL1        0.0039
     23 C          58.6579   91.5078    4.6892 C.ar    1  UNL1       -0.0001
     24 C          59.9628   93.6579    1.6194 C.3     1  UNL1        0.4186
     25 F          59.9678   94.5611    0.4218 F       1  UNL1       -0.1659
     26 F          61.2248   94.3027    2.1109 F       1  UNL1       -0.1659
     27 F          58.7008   93.0132    1.1278 F       1  UNL1       -0.1659
     28 C          61.4633   89.0771   13.2211 C.3     1  UNL1        0.1934
     29 N          62.5928   90.0519   13.0664 N.ar    1  UNL1       -0.2979
     30 C          62.9620   90.5620   11.7049 C.ar    1  UNL1        0.0782
     31 C          64.0915   91.5368   11.5501 C.ar    1  UNL1        0.0532
     32 C          64.4608   92.0469   10.1888 C.3     1  UNL1        0.0377
     33 C          64.8518   92.0015   12.7569 C.ar    1  UNL1        0.2783
     34 O          65.9813   92.9763   12.6021 O.2     1  UNL1       -0.2654
     35 N          64.4826   91.4914   14.1182 N.ar    1  UNL1       -0.1847
     36 C          63.3531   90.5166   14.2730 C.ar    1  UNL1        0.1750
     37 S          62.9838   90.0065   15.6344 S.3     1  UNL1       -0.0724
     38 C          63.8571   88.9975   16.3196 C.3     1  UNL1        0.0913
     39 C          63.7028   87.5381   16.0092 C.ar    1  UNL1       -0.0108
     40 C          62.8963   86.6592   16.9186 C.ar    1  UNL1       -0.0011
     41 C          62.7419   85.1997   16.6082 C.ar    1  UNL1        0.0293
     42 C          63.3941   84.6193   15.3884 C.ar    1  UNL1        0.1401
     43 F          63.2397   83.1599   15.0781 F       1  UNL1       -0.2042
     44 C          64.2006   85.4983   14.4790 C.ar    1  UNL1        0.0293
     45 C          64.3549   86.9577   14.7894 C.ar    1  UNL1       -0.0011
@<TRIPOS>BOND
     1     7     8    1
     2     8     6    1
     3     6     9    1
     4     9    10    1
     5     6     5    1
     6     5     4    1
     7     4     1    1
     8     1    11    1
     9    11    12    1
    10    12    13   ar
    11    13    14   ar
    12    14    15   ar
    13    15    18    1
    14    18    19   ar
    15    19    20   ar
    16    20    21   ar
    17    21    24    1
    18    24    25    1
    19    24    26    1
    20    24    27    1
    21    21    22   ar
    22    22    23   ar
    23    15    16   ar
    24    16    17   ar
    25     1     2   am
    26     2     3    2
    27     2    28    1
    28    28    29    1
    29    29    30   ar
    30    30    31   ar
    31    31    32    1
    32    31    33   ar
    33    33    34    2
    34    33    35   ar
    35    35    36   ar
    36    36    37    1
    37    37    38    1
    38    38    39    1
    39    39    40   ar
    40    40    41   ar
    41    41    42   ar
    42    42    43    1
    43    42    44   ar
    44    44    45   ar
    45    17    12   ar
    46    36    29   ar
    47    45    39   ar
    48    23    18   ar
@<TRIPOS>MOLECULE
*****
 45 48 0 0 0
SMALL
GASTEIGER

@<TRIPOS>ATOM
      1 N          64.4769   89.7538   14.4484 N.am    1  UNL1       -0.2724
      2 C          63.0987   90.2500   14.1249 C.2     1  UNL1        0.2491
      3 O          61.8970   89.4777   14.5825 O.2     1  UNL1       -0.2727
      4 C          65.6786   90.5262   13.9908 C.3     1  UNL1        0.1111
      5 C          66.8631   90.6777   14.8986 C.3     1  UNL1        0.0939
      6 N          67.2155   92.0263   15.4528 N.3     1  UNL1       -0.2712
      7 C          65.0262   92.2818   16.8281 C.3     1  UNL1        0.0188
      8 C          66.1465   92.8973   16.0433 C.3     1  UNL1        0.0722
      9 C          68.6370   92.5039   15.4165 C.3     1  UNL1        0.0722
     10 C          68.9813   93.8731   15.9234 C.3     1  UNL1        0.0188
     11 C          64.6532   88.4855   15.2295 C.3     1  UNL1        0.1202
     12 C          64.3783   87.1610   14.5811 C.ar    1  UNL1       -0.0023
     13 C          64.8968   85.8989   15.2041 C.ar    1  UNL1       -0.0026
     14 C          64.6219   84.5746   14.5558 C.ar    1  UNL1       -0.0003
     15 C          63.8283   84.5123   13.2844 C.ar    1  UNL1       -0.0000
     16 C          63.3097   85.7743   12.6614 C.ar    1  UNL1       -0.0003
     17 C          63.5847   87.0987   13.3097 C.ar    1  UNL1       -0.0026
     18 C          63.5533   83.1878   12.6361 C.ar    1  UNL1       -0.0000
     19 C          63.7520   83.0203   11.1588 C.ar    1  UNL1       -0.0001
     20 C          63.4770   81.6958   10.5105 C.ar    1  UNL1        0.0039
     21 C          63.0034   80.5389   11.3395 C.ar    1  UNL1        0.0714
     22 C          62.8047   80.7065   12.8169 C.ar    1  UNL1        0.0039
     23 C          63.0797   82.0309   13.4651 C.ar    1  UNL1       -0.0001
     24 C          62.7284   79.2145   10.6913 C.3     1  UNL1        0.4186
     25 F          62.4534   77.8901   10.0430 F       1  UNL1       -0.1659
     26 F          62.9869   79.8205    9.3437 F       1  UNL1       -0.1659
     27 F          62.4699   78.6086   12.0388 F       1  UNL1       -0.1659
     28 C          62.9224   91.5184   13.3438 C.3     1  UNL1        0.1934
     29 N          63.9541   91.9274   12.3348 N.ar    1  UNL1       -0.2979
     30 C          65.1205   92.7721   12.7547 C.ar    1  UNL1        0.0782
     31 C          66.1522   93.1810   11.7457 C.ar    1  UNL1        0.0532
     32 C          67.3185   94.0256   12.1656 C.3     1  UNL1        0.0377
     33 C          66.0176   92.7453   10.3166 C.ar    1  UNL1        0.2783
     34 O          67.0494   93.1543    9.3075 O.2     1  UNL1       -0.2654
     35 N          64.8514   91.9007    9.8967 N.ar    1  UNL1       -0.1847
     36 C          63.8196   91.4917   10.9058 C.ar    1  UNL1        0.1750
     37 S          62.6533   90.6471   10.4859 S.3     1  UNL1       -0.0724
     38 C          62.7168   89.1554   10.6307 C.3     1  UNL1        0.0913
     39 C          61.8706   88.2801    9.7546 C.ar    1  UNL1       -0.0108
     40 C          62.2978   86.8717    9.4651 C.ar    1  UNL1       -0.0011
     41 C          61.4515   85.9964    8.5889 C.ar    1  UNL1        0.0293
     42 C          60.1780   86.5294    8.0023 C.ar    1  UNL1        0.1401
     43 F          59.3318   85.6541    7.1262 F       1  UNL1       -0.2042
     44 C          59.7508   87.9379    8.2919 C.ar    1  UNL1        0.0293
     45 C          60.5971   88.8132    9.1680 C.ar    1  UNL1       -0.0011
@<TRIPOS>BOND
     1     7     8    1
     2     8     6    1
     3     6     9    1
     4     9    10    1
     5     6     5    1
     6     5     4    1
     7     4     1    1
     8     1    11    1
     9    11    12    1
    10    12    13   ar
    11    13    14   ar
    12    14    15   ar
    13    15    18    1
    14    18    19   ar
    15    19    20   ar
    16    20    21   ar
    17    21    24    1
    18    24    25    1
    19    24    26    1
    20    24    27    1
    21    21    22   ar
    22    22    23   ar
    23    15    16   ar
    24    16    17   ar
    25     1     2   am
    26     2     3    2
    27     2    28    1
    28    28    29    1
    29    29    30   ar
    30    30    31   ar
    31    31    32    1
    32    31    33   ar
    33    33    34    2
    34    33    35   ar
    35    35    36   ar
    36    36    37    1
    37    37    38    1
    38    38    39    1
    39    39    40   ar
    40    40    41   ar
    41    41    42   ar
    42    42    43    1
    43    42    44   ar
    44    44    45   ar
    45    17    12   ar
    46    36    29   ar
    47    45    39   ar
    48    23    18   ar
@<TRIPOS>MOLECULE
*****
 45 48 0 0 0
SMALL
GASTEIGER

@<TRIPOS>ATOM
      1 N          60.0376   89.1256    9.0502 N.am    1  UNL1       -0.2724
      2 C          59.7448   87.9461    9.9295 C.2     1  UNL1        0.2491
      3 O          59.6678   88.1205   11.4173 O.2     1  UNL1       -0.2727
      4 C          60.1146   88.9511    7.5623 C.3     1  UNL1        0.1111
      5 C          59.0197   89.4848    6.6869 C.3     1  UNL1        0.0939
      6 N          59.3205   90.5512    5.6758 N.3     1  UNL1       -0.2712
      7 C          61.0073   91.7438    4.1002 C.3     1  UNL1        0.0188
      8 C          60.7200   90.7276    5.1655 C.3     1  UNL1        0.0722
      9 C          58.2218   91.4412    5.1750 C.3     1  UNL1        0.0722
     10 C          56.8026   90.9554    5.1787 C.3     1  UNL1        0.0188
     11 C          60.2534   90.4795    9.6587 C.3     1  UNL1        0.1202
     12 C          61.4617   90.7352   10.5101 C.ar    1  UNL1       -0.0023
     13 C          62.6992   91.3223    9.8988 C.ar    1  UNL1       -0.0026
     14 C          63.9074   91.5780   10.7501 C.ar    1  UNL1       -0.0003
     15 C          63.8780   91.2467   12.2128 C.ar    1  UNL1       -0.0000
     16 C          62.6404   90.6596   12.8241 C.ar    1  UNL1       -0.0003
     17 C          61.4323   90.4039   11.9727 C.ar    1  UNL1       -0.0026
     18 C          65.0863   91.5024   13.0642 C.ar    1  UNL1       -0.0000
     19 C          65.1545   90.9468   14.4558 C.ar    1  UNL1       -0.0001
     20 C          66.3627   91.2026   15.3071 C.ar    1  UNL1        0.0039
     21 C          67.5028   92.0139   14.7668 C.ar    1  UNL1        0.0714
     22 C          67.4346   92.5695   13.3751 C.ar    1  UNL1        0.0039
     23 C          66.2264   92.3137   12.5238 C.ar    1  UNL1       -0.0001
     24 C          68.7110   92.2696   15.6181 C.3     1  UNL1        0.4186
     25 F          69.9193   92.5254   16.4694 F       1  UNL1       -0.1659
     26 F          69.5430   92.4502   14.3831 F       1  UNL1       -0.1659
     27 F          67.8791   92.0891   16.8531 F       1  UNL1       -0.1659
     28 C          59.5291   86.5922    9.3208 C.3     1  UNL1        0.1934
     29 N          60.6077   85.9629    8.4899 N.ar    1  UNL1       -0.2979
     30 C          60.2791   85.3906    7.1428 C.ar    1  UNL1        0.0782
     31 C          61.3578   84.7613    6.3119 C.ar    1  UNL1        0.0532
     32 C          61.0292   84.1890    4.9649 C.3     1  UNL1        0.0377
     33 C          62.7651   84.7043    6.8280 C.ar    1  UNL1        0.2783
     34 O          63.8438   84.0751    5.9970 O.2     1  UNL1       -0.2654
     35 N          63.0937   85.2766    8.1750 N.ar    1  UNL1       -0.1847
     36 C          62.0150   85.9059    9.0059 C.ar    1  UNL1        0.1750
     37 S          62.3436   86.4782   10.3529 S.3     1  UNL1       -0.0724
     38 C          61.8470   85.8022   11.5965 C.3     1  UNL1        0.0913
     39 C          62.5293   84.5654   12.1013 C.ar    1  UNL1       -0.0108
     40 C          63.0055   84.4985   13.5221 C.ar    1  UNL1       -0.0011
     41 C          63.6878   83.2617   14.0269 C.ar    1  UNL1        0.0293
     42 C          63.8939   82.0918   13.1109 C.ar    1  UNL1        0.1401
     43 F          64.5762   80.8551   13.6157 F       1  UNL1       -0.2042
     44 C          63.4176   82.1588   11.6901 C.ar    1  UNL1        0.0293
     45 C          62.7353   83.3956   11.1853 C.ar    1  UNL1       -0.0011
@<TRIPOS>BOND
     1     7     8    1
     2     8     6    1
     3     6     9    1
     4     9    10    1
     5     6     5    1
     6     5     4    1
     7     4     1    1
     8     1    11    1
     9    11    12    1
    10    12    13   ar
    11    13    14   ar
    12    14    15   ar
    13    15    18    1
    14    18    19   ar
    15    19    20   ar
    16    20    21   ar
    17    21    24    1
    18    24    25    1
    19    24    26    1
    20    24    27    1
    21    21    22   ar
    22    22    23   ar
    23    15    16   ar
    24    16    17   ar
    25     1     2   am
    26     2     3    2
    27     2    28    1
    28    28    29    1
    29    29    30   ar
    30    30    31   ar
    31    31    32    1
    32    31    33   ar
    33    33    34    2
    34    33    35   ar
    35    35    36   ar
    36    36    37    1
    37    37    38    1
    38    38    39    1
    39    39    40   ar
    40    40    41   ar
    41    41    42   ar
    42    42    43    1
    43    42    44   ar
    44    44    45   ar
    45    17    12   ar
    46    36    29   ar
    47    45    39   ar
    48    23    18   ar
@<TRIPOS>MOLECULE
*****
 45 48 0 0 0
SMALL
GASTEIGER

@<TRIPOS>ATOM
      1 N          61.5688   87.0315   11.5538 N.am    1  UNL1       -0.2724
      2 C          62.3361   85.8021   11.9410 C.2     1  UNL1        0.2491
      3 O          61.9077   84.4586   11.4298 O.2     1  UNL1       -0.2727
      4 C          61.9972   88.3750   12.0651 C.3     1  UNL1        0.1111
      5 C          63.1200   89.1095   11.3945 C.3     1  UNL1        0.0939
      6 N          63.4702   90.5020   11.8285 N.3     1  UNL1       -0.2712
      7 C          64.9329   90.9392   13.9308 C.3     1  UNL1        0.0188
      8 C          63.5820   90.8267   13.2888 C.3     1  UNL1        0.0722
      9 C          63.7086   91.5698   10.8024 C.3     1  UNL1        0.0722
     10 C          64.9969   92.3382   10.8050 C.3     1  UNL1        0.0188
     11 C          60.3731   86.9173   10.6553 C.3     1  UNL1        0.1202
     12 C          60.2444   87.8149    9.4603 C.ar    1  UNL1       -0.0023
     13 C          59.9161   87.2332    8.1173 C.ar    1  UNL1       -0.0026
     14 C          59.7874   88.1308    6.9224 C.ar    1  UNL1       -0.0003
     15 C          59.9870   89.6101    7.0707 C.ar    1  UNL1       -0.0000
     16 C          60.3152   90.1918    8.4137 C.ar    1  UNL1       -0.0003
     17 C          60.4439   89.2941    9.6086 C.ar    1  UNL1       -0.0026
     18 C          59.8583   90.5077    5.8757 C.ar    1  UNL1       -0.0000
     19 C          58.5132   91.0400    5.4790 C.ar    1  UNL1       -0.0001
     20 C          58.3845   91.9377    4.2841 C.ar    1  UNL1        0.0039
     21 C          59.6009   92.3029    3.4859 C.ar    1  UNL1        0.0714
     22 C          60.9460   91.7705    3.8827 C.ar    1  UNL1        0.0039
     23 C          61.0746   90.8730    5.0776 C.ar    1  UNL1       -0.0001
     24 C          59.4722   93.2005    2.2911 C.3     1  UNL1        0.4186
     25 F          59.3435   94.0981    1.0962 F       1  UNL1       -0.1659
     26 F          58.7562   92.1108    1.5496 F       1  UNL1       -0.1659
     27 F          60.1882   94.2902    3.0325 F       1  UNL1       -0.1659
     28 C          63.5318   85.9164   12.8396 C.3     1  UNL1        0.1934
     29 N          63.3462   86.1701   14.3063 N.ar    1  UNL1       -0.2979
     30 C          63.4270   87.5690   14.8416 C.ar    1  UNL1        0.0782
     31 C          63.2415   87.8227   16.3083 C.ar    1  UNL1        0.0532
     32 C          63.3223   89.2215   16.8436 C.3     1  UNL1        0.0377
     33 C          62.9751   86.6774   17.2397 C.ar    1  UNL1        0.2783
     34 O          62.7895   86.9311   18.7064 O.2     1  UNL1       -0.2654
     35 N          62.8943   85.2785   16.7044 N.ar    1  UNL1       -0.1847
     36 C          63.0799   85.0249   15.2377 C.ar    1  UNL1        0.1750
     37 S          62.9991   83.6260   14.7024 S.3     1  UNL1       -0.0724
     38 C          64.0997   83.0899   13.8355 C.3     1  UNL1        0.0913
     39 C          63.7747   82.1822   12.6864 C.ar    1  UNL1       -0.0108
     40 C          62.9591   80.9445   12.9158 C.ar    1  UNL1       -0.0011
     41 C          62.6341   80.0367   11.7667 C.ar    1  UNL1        0.0293
     42 C          63.1248   80.3668   10.3882 C.ar    1  UNL1        0.1401
     43 F          62.7998   79.4591    9.2391 F       1  UNL1       -0.2042
     44 C          63.9405   81.6046   10.1588 C.ar    1  UNL1        0.0293
     45 C          64.2654   82.5123   11.3079 C.ar    1  UNL1       -0.0011
@<TRIPOS>BOND
     1     7     8    1
     2     8     6    1
     3     6     9    1
     4     9    10    1
     5     6     5    1
     6     5     4    1
     7     4     1    1
     8     1    11    1
     9    11    12    1
    10    12    13   ar
    11    13    14   ar
    12    14    15   ar
    13    15    18    1
    14    18    19   ar
    15    19    20   ar
    16    20    21   ar
    17    21    24    1
    18    24    25    1
    19    24    26    1
    20    24    27    1
    21    21    22   ar
    22    22    23   ar
    23    15    16   ar
    24    16    17   ar
    25     1     2   am
    26     2     3    2
    27     2    28    1
    28    28    29    1
    29    29    30   ar
    30    30    31   ar
    31    31    32    1
    32    31    33   ar
    33    33    34    2
    34    33    35   ar
    35    35    36   ar
    36    36    37    1
    37    37    38    1
    38    38    39    1
    39    39    40   ar
    40    40    41   ar
    41    41    42   ar
    42    42    43    1
    43    42    44   ar
    44    44    45   ar
    45    17    12   ar
    46    36    29   ar
    47    45    39   ar
    48    23    18   ar
