@<TRIPOS>MOLECULE
*****
 32 36 0 0 0
SMALL
GASTEIGER

@<TRIPOS>ATOM
      1 C          62.3330   89.2040   12.1074 C.3     1  UNL1        0.1211
      2 C          61.5151   89.8476   11.0273 C.3     1  UNL1        0.0804
      3 N          61.0073   89.0252    9.8803 N.3     1  UNL1       -0.2969
      4 C          61.3174   87.5592    9.8134 C.3     1  UNL1        0.0714
      5 C          62.1354   86.9155   10.8935 C.3     1  UNL1        0.0490
      6 C          62.6432   87.7379   12.0405 C.3     1  UNL1        0.1224
      7 O          63.2163   88.4285   13.2425 O.3     1  UNL1       -0.3492
      8 C          63.9590   87.4081   14.0532 C.3     1  UNL1        0.1687
      9 C          63.8448   86.0868   13.3523 C.ar    1  UNL1        0.0079
     10 C          64.3763   84.7244   13.6860 C.ar    1  UNL1        0.0299
     11 C          64.0946   83.5658   12.7758 C.ar    1  UNL1        0.1671
     12 F          64.6260   82.2035   13.1095 F       1  UNL1       -0.2018
     13 C          63.2814   83.7697   11.5320 C.ar    1  UNL1        0.1671
     14 F          62.9997   82.6111   10.6218 F       1  UNL1       -0.2018
     15 C          62.7499   85.1321   11.1982 C.ar    1  UNL1        0.0297
     16 C          63.0316   86.2907   12.1084 C.ar    1  UNL1        0.0033
     17 H          61.3814   89.4445    9.0290 H       1  UNL1        0.1233
     18 O          62.4660   89.6642   14.6610 O.2     1  UNL1       -0.2747
     19 C          62.8409   90.0264   13.2545 C.2     1  UNL1        0.2294
     20 N          63.7237   91.2110   12.9951 N.am    1  UNL1       -0.2769
     21 C          64.0987   91.5732   11.5886 C.3     1  UNL1        0.0758
     22 C          65.0824   92.1494   10.6138 C.3     1  UNL1        0.0215
     23 C          63.7643   91.6245   10.1272 C.3     1  UNL1        0.0215
     24 C          64.2316   92.0334   14.1421 C.3     1  UNL1        0.1209
     25 C          65.7003   92.0728   14.4445 C.ar    1  UNL1        0.0091
     26 C          66.6970   91.7878   13.3604 C.ar    1  UNL1        0.0096
     27 C          68.1657   91.8271   13.6627 C.ar    1  UNL1        0.0575
     28 CL         69.1625   91.5422   12.5786 Cl      1  UNL1       -0.0823
     29 C          68.6376   92.1514   15.0491 C.ar    1  UNL1        0.0122
     30 C          67.6408   92.4363   16.1333 C.ar    1  UNL1        0.0120
     31 C          66.1722   92.3970   15.8309 C.ar    1  UNL1        0.0553
     32 CL         65.1754   92.6819   16.9150 Cl      1  UNL1       -0.0825
@<TRIPOS>BOND
     1    18    19    2
     2     1    19    1
     3     1     2    1
     4     2     3    1
     5     3     4    1
     6     4     5    1
     7     6     5    1
     8     6     7    1
     9     7     8    1
    10     8     9    1
    11     9    10   ar
    12    10    11   ar
    13    11    12    1
    14    11    13   ar
    15    13    14    1
    16    13    15   ar
    17    15    16   ar
    18    19    20   am
    19    20    24    1
    20    24    25    1
    21    25    26   ar
    22    26    27   ar
    23    27    28    1
    24    27    29   ar
    25    29    30   ar
    26    30    31   ar
    27    31    32    1
    28    20    21    1
    29    21    22    1
    30    22    23    1
    31     6     1    1
    32    16     9   ar
    33    31    25   ar
    34    23    21    1
    35    16     6    1
    36     3    17    1
@<TRIPOS>MOLECULE
*****
 32 36 0 0 0
SMALL
GASTEIGER

@<TRIPOS>ATOM
      1 C          62.8130   87.3892   11.5394 C.3     1  UNL1        0.1211
      2 C          62.3518   87.9164   10.2130 C.3     1  UNL1        0.0804
      3 N          61.9548   86.9640    9.1244 N.3     1  UNL1       -0.2969
      4 C          62.0190   85.4843    9.3622 C.3     1  UNL1        0.0714
      5 C          62.4803   84.9571   10.6885 C.3     1  UNL1        0.0490
      6 C          62.8773   85.9096   11.7771 C.3     1  UNL1        0.1224
      7 O          63.3038   86.7358   12.9543 O.3     1  UNL1       -0.3492
      8 C          63.6831   85.8005   14.0640 C.3     1  UNL1        0.1687
      9 C          63.4910   84.3962   13.5727 C.ar    1  UNL1        0.0079
     10 C          63.7052   83.0650   14.2297 C.ar    1  UNL1        0.0299
     11 C          63.4213   81.8010   13.4734 C.ar    1  UNL1        0.1671
     12 F          63.6355   80.4697   14.1303 F       1  UNL1       -0.2018
     13 C          62.9233   81.8685   12.0601 C.ar    1  UNL1        0.1671
     14 F          62.6395   80.6046   11.3037 F       1  UNL1       -0.2018
     15 C          62.7091   83.1998   11.4030 C.ar    1  UNL1        0.0297
     16 C          62.9929   84.4637   12.1593 C.ar    1  UNL1        0.0033
     17 H          62.5590   87.1605    8.3264 H       1  UNL1        0.1233
     18 O          64.4461   88.0826   13.4374 O.2     1  UNL1       -0.2747
     19 C          63.2101   88.3417   12.6281 C.2     1  UNL1        0.2294
     20 N          62.3710   89.5533   12.9074 N.am    1  UNL1       -0.2769
     21 C          61.1349   89.8125   12.0980 C.3     1  UNL1        0.0758
     22 C          59.6738   89.5830   11.8486 C.3     1  UNL1        0.0215
     23 C          60.4552   90.4907   10.9457 C.3     1  UNL1        0.0215
     24 C          62.7680   90.5058   13.9961 C.3     1  UNL1        0.1209
     25 C          64.0542   91.2704   13.8915 C.ar    1  UNL1        0.0091
     26 C          64.6132   91.6170   12.5434 C.ar    1  UNL1        0.0096
     27 C          65.8995   92.3816   12.4388 C.ar    1  UNL1        0.0575
     28 CL         66.4584   92.7283   11.0907 Cl      1  UNL1       -0.0823
     29 C          66.6268   92.7996   13.6823 C.ar    1  UNL1        0.0122
     30 C          66.0678   92.4529   15.0305 C.ar    1  UNL1        0.0120
     31 C          64.7816   91.6883   15.1351 C.ar    1  UNL1        0.0553
     32 CL         64.2226   91.3417   16.4832 Cl      1  UNL1       -0.0825
@<TRIPOS>BOND
     1    18    19    2
     2     1    19    1
     3     1     2    1
     4     2     3    1
     5     3     4    1
     6     4     5    1
     7     6     5    1
     8     6     7    1
     9     7     8    1
    10     8     9    1
    11     9    10   ar
    12    10    11   ar
    13    11    12    1
    14    11    13   ar
    15    13    14    1
    16    13    15   ar
    17    15    16   ar
    18    19    20   am
    19    20    24    1
    20    24    25    1
    21    25    26   ar
    22    26    27   ar
    23    27    28    1
    24    27    29   ar
    25    29    30   ar
    26    30    31   ar
    27    31    32    1
    28    20    21    1
    29    21    22    1
    30    22    23    1
    31     6     1    1
    32    16     9   ar
    33    31    25   ar
    34    23    21    1
    35    16     6    1
    36     3    17    1
@<TRIPOS>MOLECULE
*****
 32 36 0 0 0
SMALL
GASTEIGER

@<TRIPOS>ATOM
      1 C          63.2510   88.2029   12.5523 C.3     1  UNL1        0.1211
      2 C          63.7903   87.0555   13.3539 C.3     1  UNL1        0.0804
      3 N          63.4115   85.6484   12.9981 N.3     1  UNL1       -0.2969
      4 C          62.4933   85.3888   11.8407 C.3     1  UNL1        0.0714
      5 C          61.9539   86.5361   11.0392 C.3     1  UNL1        0.0490
      6 C          62.3328   87.9432   11.3950 C.3     1  UNL1        0.1224
      7 O          62.6216   89.3962   11.6305 O.3     1  UNL1       -0.3492
      8 C          61.8772   90.1901   10.5982 C.3     1  UNL1        0.1687
      9 C          61.1283   89.2278    9.7246 C.ar    1  UNL1        0.0079
     10 C          60.2265   89.4366    8.5444 C.ar    1  UNL1        0.0299
     11 C          59.6061   88.2567    7.8565 C.ar    1  UNL1        0.1671
     12 F          58.7043   88.4655    6.6763 F       1  UNL1       -0.2018
     13 C          59.8877   86.8681    8.3489 C.ar    1  UNL1        0.1671
     14 F          59.2674   85.6883    7.6610 F       1  UNL1       -0.2018
     15 C          60.7896   86.6593    9.5292 C.ar    1  UNL1        0.0297
     16 C          61.4099   87.8391   10.2170 C.ar    1  UNL1        0.0033
     17 H          62.9667   85.2457   13.8230 H       1  UNL1        0.1233
     18 O          63.8912   90.6132   11.8241 O.2     1  UNL1       -0.2747
     19 C          63.6298   89.6100   12.9081 C.2     1  UNL1        0.2294
     20 N          63.7472   90.0139   14.3479 N.am    1  UNL1       -0.2769
     21 C          63.4858   89.0106   15.4320 C.3     1  UNL1        0.0758
     22 C          63.6741   87.6364   16.0031 C.3     1  UNL1        0.0215
     23 C          62.8448   88.6470   16.7385 C.3     1  UNL1        0.0215
     24 C          64.1260   91.4209   14.7037 C.3     1  UNL1        0.1209
     25 C          65.5722   91.8012   14.8220 C.ar    1  UNL1        0.0091
     26 C          66.5125   91.5378   13.6834 C.ar    1  UNL1        0.0096
     27 C          67.9586   91.9181   13.8016 C.ar    1  UNL1        0.0575
     28 CL         68.8989   91.6546   12.6630 Cl      1  UNL1       -0.0823
     29 C          68.4645   92.5618   15.0585 C.ar    1  UNL1        0.0122
     30 C          67.5242   92.8253   16.1971 C.ar    1  UNL1        0.0120
     31 C          66.0780   92.4450   16.0789 C.ar    1  UNL1        0.0553
     32 CL         65.1377   92.7085   17.2175 Cl      1  UNL1       -0.0825
@<TRIPOS>BOND
     1    18    19    2
     2     1    19    1
     3     1     2    1
     4     2     3    1
     5     3     4    1
     6     4     5    1
     7     6     5    1
     8     6     7    1
     9     7     8    1
    10     8     9    1
    11     9    10   ar
    12    10    11   ar
    13    11    12    1
    14    11    13   ar
    15    13    14    1
    16    13    15   ar
    17    15    16   ar
    18    19    20   am
    19    20    24    1
    20    24    25    1
    21    25    26   ar
    22    26    27   ar
    23    27    28    1
    24    27    29   ar
    25    29    30   ar
    26    30    31   ar
    27    31    32    1
    28    20    21    1
    29    21    22    1
    30    22    23    1
    31     6     1    1
    32    16     9   ar
    33    31    25   ar
    34    23    21    1
    35    16     6    1
    36     3    17    1
@<TRIPOS>MOLECULE
*****
 32 36 0 0 0
SMALL
GASTEIGER

@<TRIPOS>ATOM
      1 C          63.8942   86.7597   13.6307 C.3     1  UNL1        0.1211
      2 C          64.5134   87.7531   14.5685 C.3     1  UNL1        0.0804
      3 N          64.2790   89.2210   14.3677 N.3     1  UNL1       -0.2969
      4 C          63.4255   89.6954   13.2292 C.3     1  UNL1        0.0714
      5 C          62.8063   88.7020   12.2913 C.3     1  UNL1        0.0490
      6 C          63.0406   87.2341   12.4921 C.3     1  UNL1        0.1224
      7 O          63.1848   85.7428   12.5664 O.3     1  UNL1       -0.3492
      8 C          62.4018   85.1445   11.4356 C.3     1  UNL1        0.1687
      9 C          61.7736   86.2659   10.6622 C.ar    1  UNL1        0.0079
     10 C          60.8932   86.2779    9.4480 C.ar    1  UNL1        0.0299
     11 C          60.4076   87.5814    8.8865 C.ar    1  UNL1        0.1671
     12 F          59.5272   87.5935    7.6722 F       1  UNL1       -0.2018
     13 C          60.8024   88.8728    9.5395 C.ar    1  UNL1        0.1671
     14 F          60.3168   90.1763    8.9781 F       1  UNL1       -0.2018
     15 C          61.6829   88.8608   10.7539 C.ar    1  UNL1        0.0297
     16 C          62.1685   87.5574   11.3153 C.ar    1  UNL1        0.0033
     17 H          65.1958   89.6519   14.2479 H       1  UNL1        0.1233
     18 O          64.8846   84.5052   12.8020 O.2     1  UNL1       -0.2747
     19 C          64.1285   85.2917   13.8314 C.2     1  UNL1        0.2294
     20 N          63.6066   84.6103   15.0616 N.am    1  UNL1       -0.2769
     21 C          62.8504   85.3968   16.0910 C.3     1  UNL1        0.0758
     22 C          62.8315   86.1898   17.3641 C.3     1  UNL1        0.0215
     23 C          61.5597   85.9660   16.6009 C.3     1  UNL1        0.0215
     24 C          63.8409   83.1424   15.2624 C.3     1  UNL1        0.1209
     25 C          63.0771   82.1424   14.4459 C.ar    1  UNL1        0.0091
     26 C          61.6515   81.8263   14.7887 C.ar    1  UNL1        0.0096
     27 C          60.8877   80.8263   13.9721 C.ar    1  UNL1        0.0575
     28 CL         59.4620   80.5103   14.3150 Cl      1  UNL1       -0.0823
     29 C          61.5496   80.1424   12.8128 C.ar    1  UNL1        0.0122
     30 C          62.9754   80.4584   12.4700 C.ar    1  UNL1        0.0120
     31 C          63.7391   81.4584   13.2865 C.ar    1  UNL1        0.0553
     32 CL         65.1648   81.7745   12.9437 Cl      1  UNL1       -0.0825
@<TRIPOS>BOND
     1    18    19    2
     2     1    19    1
     3     1     2    1
     4     2     3    1
     5     3     4    1
     6     4     5    1
     7     6     5    1
     8     6     7    1
     9     7     8    1
    10     8     9    1
    11     9    10   ar
    12    10    11   ar
    13    11    12    1
    14    11    13   ar
    15    13    14    1
    16    13    15   ar
    17    15    16   ar
    18    19    20   am
    19    20    24    1
    20    24    25    1
    21    25    26   ar
    22    26    27   ar
    23    27    28    1
    24    27    29   ar
    25    29    30   ar
    26    30    31   ar
    27    31    32    1
    28    20    21    1
    29    21    22    1
    30    22    23    1
    31     6     1    1
    32    16     9   ar
    33    31    25   ar
    34    23    21    1
    35    16     6    1
    36     3    17    1
@<TRIPOS>MOLECULE
*****
 32 36 0 0 0
SMALL
GASTEIGER

@<TRIPOS>ATOM
      1 C          62.7744   86.2798   10.5548 C.3     1  UNL1        0.1211
      2 C          62.8544   86.4985    9.0730 C.3     1  UNL1        0.0804
      3 N          62.9191   85.3228    8.1438 N.3     1  UNL1       -0.2969
      4 C          62.9039   83.9284    8.6964 C.3     1  UNL1        0.0714
      5 C          62.8239   83.7096   10.1782 C.3     1  UNL1        0.0490
      6 C          62.7592   84.8853   11.1074 C.3     1  UNL1        0.1224
      7 O          62.6890   85.9573   12.1544 O.3     1  UNL1       -0.3492
      8 C          62.6218   85.2907   13.4965 C.3     1  UNL1        0.1687
      9 C          62.6504   83.8068   13.2790 C.ar    1  UNL1        0.0079
     10 C          62.6100   82.6514   14.2346 C.ar    1  UNL1        0.0299
     11 C          62.6546   81.2454   13.7138 C.ar    1  UNL1        0.1671
     12 F          62.6143   80.0900   14.6695 F       1  UNL1       -0.2018
     13 C          62.7396   80.9949   12.2373 C.ar    1  UNL1        0.1671
     14 F          62.7842   79.5889   11.7165 F       1  UNL1       -0.2018
     15 C          62.7799   82.1503   11.2816 C.ar    1  UNL1        0.0297
     16 C          62.7353   83.5563   11.8024 C.ar    1  UNL1        0.0033
     17 H          63.7820   85.4179    7.6083 H       1  UNL1        0.1233
     18 O          63.6433   87.5382   12.6551 O.2     1  UNL1       -0.2747
     19 C          62.7096   87.4555   11.4841 C.2     1  UNL1        0.2294
     20 N          61.7111   88.5484   11.2423 N.am    1  UNL1       -0.2769
     21 C          60.7774   88.4657   10.0713 C.3     1  UNL1        0.0758
     22 C          60.2401   89.0421    8.7950 C.3     1  UNL1        0.0215
     23 C          59.6974   87.7458    9.3193 C.3     1  UNL1        0.0215
     24 C          61.6463   89.7241   12.1716 C.3     1  UNL1        0.1209
     25 C          62.8764   90.5415   12.4339 C.ar    1  UNL1        0.0091
     26 C          63.4456   90.6166   13.8197 C.ar    1  UNL1        0.0096
     27 C          64.6757   91.4339   14.0820 C.ar    1  UNL1        0.0575
     28 CL         65.2448   91.5090   15.4678 Cl      1  UNL1       -0.0823
     29 C          65.3366   92.1762   12.9585 C.ar    1  UNL1        0.0122
     30 C          64.7675   92.1011   11.5727 C.ar    1  UNL1        0.0120
     31 C          63.5374   91.2838   11.3104 C.ar    1  UNL1        0.0553
     32 CL         62.9682   91.2087    9.9246 Cl      1  UNL1       -0.0825
@<TRIPOS>BOND
     1    18    19    2
     2     1    19    1
     3     1     2    1
     4     2     3    1
     5     3     4    1
     6     4     5    1
     7     6     5    1
     8     6     7    1
     9     7     8    1
    10     8     9    1
    11     9    10   ar
    12    10    11   ar
    13    11    12    1
    14    11    13   ar
    15    13    14    1
    16    13    15   ar
    17    15    16   ar
    18    19    20   am
    19    20    24    1
    20    24    25    1
    21    25    26   ar
    22    26    27   ar
    23    27    28    1
    24    27    29   ar
    25    29    30   ar
    26    30    31   ar
    27    31    32    1
    28    20    21    1
    29    21    22    1
    30    22    23    1
    31     6     1    1
    32    16     9   ar
    33    31    25   ar
    34    23    21    1
    35    16     6    1
    36     3    17    1
@<TRIPOS>MOLECULE
*****
 32 36 0 0 0
SMALL
GASTEIGER

@<TRIPOS>ATOM
      1 C          64.2138   90.2729   13.2330 C.3     1  UNL1        0.1211
      2 C          64.8124   90.0596   14.5917 C.3     1  UNL1        0.0804
      3 N          64.7701   88.7005   15.2249 N.3     1  UNL1       -0.2969
      4 C          64.1292   87.5547   14.4994 C.3     1  UNL1        0.0714
      5 C          63.5306   87.7680   13.1407 C.3     1  UNL1        0.0490
      6 C          63.5728   89.1271   12.5075 C.3     1  UNL1        0.1224
      7 O          63.5401   90.4226   11.7519 O.3     1  UNL1       -0.3492
      8 C          62.8489   90.1786   10.4432 C.3     1  UNL1        0.1687
      9 C          62.4544   88.7323   10.3899 C.ar    1  UNL1        0.0079
     10 C          61.7456   87.9232    9.3446 C.ar    1  UNL1        0.0299
     11 C          61.4842   86.4641    9.5749 C.ar    1  UNL1        0.1671
     12 F          60.7755   85.6550    8.5296 F       1  UNL1       -0.2018
     13 C          61.9317   85.8144   10.8507 C.ar    1  UNL1        0.1671
     14 F          61.6703   84.3554   11.0810 F       1  UNL1       -0.2018
     15 C          62.6405   86.6235   11.8961 C.ar    1  UNL1        0.0297
     16 C          62.9019   88.0825   11.6657 C.ar    1  UNL1        0.0033
     17 H          64.2736   88.8033   16.1099 H       1  UNL1        0.1233
     18 O          63.0684   92.1422   11.8388 O.2     1  UNL1       -0.2747
     19 C          64.2560   91.6321   12.5998 C.2     1  UNL1        0.2294
     20 N          65.4860   92.4811   12.7276 N.am    1  UNL1       -0.2769
     21 C          66.6738   91.9709   13.4886 C.3     1  UNL1        0.0758
     22 C          67.3037   91.5484   14.7826 C.3     1  UNL1        0.0215
     23 C          68.1009   91.5097   13.5126 C.3     1  UNL1        0.0215
     24 C          65.5283   93.8402   12.0944 C.3     1  UNL1        0.1209
     25 C          66.3831   94.0778   10.8849 C.ar    1  UNL1        0.0091
     26 C          67.1768   92.9504   10.2942 C.ar    1  UNL1        0.0096
     27 C          68.0316   93.1881    9.0847 C.ar    1  UNL1        0.0575
     28 CL         68.8254   92.0606    8.4940 Cl      1  UNL1       -0.0823
     29 C          68.0927   94.5531    8.4659 C.ar    1  UNL1        0.0122
     30 C          67.2989   95.6806    9.0566 C.ar    1  UNL1        0.0120
     31 C          66.4442   95.4429   10.2661 C.ar    1  UNL1        0.0553
     32 CL         65.6504   96.5703   10.8568 Cl      1  UNL1       -0.0825
@<TRIPOS>BOND
     1    18    19    2
     2     1    19    1
     3     1     2    1
     4     2     3    1
     5     3     4    1
     6     4     5    1
     7     6     5    1
     8     6     7    1
     9     7     8    1
    10     8     9    1
    11     9    10   ar
    12    10    11   ar
    13    11    12    1
    14    11    13   ar
    15    13    14    1
    16    13    15   ar
    17    15    16   ar
    18    19    20   am
    19    20    24    1
    20    24    25    1
    21    25    26   ar
    22    26    27   ar
    23    27    28    1
    24    27    29   ar
    25    29    30   ar
    26    30    31   ar
    27    31    32    1
    28    20    21    1
    29    21    22    1
    30    22    23    1
    31     6     1    1
    32    16     9   ar
    33    31    25   ar
    34    23    21    1
    35    16     6    1
    36     3    17    1
@<TRIPOS>MOLECULE
*****
 32 36 0 0 0
SMALL
GASTEIGER

@<TRIPOS>ATOM
      1 C          61.6779   87.6369   10.8539 C.3     1  UNL1        0.1211
      2 C          60.8337   87.9201    9.6468 C.3     1  UNL1        0.0804
      3 N          60.8337   89.2902    9.0363 N.3     1  UNL1       -0.2969
      4 C          61.6778   90.3771    9.6330 C.3     1  UNL1        0.0714
      5 C          62.5219   90.0940   10.8401 C.3     1  UNL1        0.0490
      6 C          62.5220   88.7238   11.4506 C.3     1  UNL1        0.1224
      7 O          62.6239   87.4096   12.1666 O.3     1  UNL1       -0.3492
      8 C          63.5773   87.5787   13.3122 C.3     1  UNL1        0.1687
      9 C          64.0647   88.9973   13.3043 C.ar    1  UNL1        0.0079
     10 C          65.0180   89.7361   14.1960 C.ar    1  UNL1        0.0299
     11 C          65.3192   91.1826   13.9373 C.ar    1  UNL1        0.1671
     12 F          66.2726   91.9213   14.8290 F       1  UNL1       -0.2018
     13 C          64.6670   91.8903   12.7867 C.ar    1  UNL1        0.1671
     14 F          64.9681   93.3368   12.5280 F       1  UNL1       -0.2018
     15 C          63.7135   91.1515   11.8949 C.ar    1  UNL1        0.0297
     16 C          63.4124   89.7051   12.1537 C.ar    1  UNL1        0.0033
     17 H          59.8692   89.6216    9.0568 H       1  UNL1        0.1233
     18 O          61.1654   86.0674   12.8599 O.2     1  UNL1       -0.2747
     19 C          61.6779   86.2667   11.4644 C.2     1  UNL1        0.2294
     20 N          62.1905   85.0958   10.6793 N.am    1  UNL1       -0.2769
     21 C          62.7031   85.2952    9.2837 C.3     1  UNL1        0.0758
     22 C          62.5126   85.1767    7.8006 C.3     1  UNL1        0.0215
     23 C          63.7812   85.7590    8.3496 C.3     1  UNL1        0.0215
     24 C          62.1906   83.7257   11.2897 C.3     1  UNL1        0.1209
     25 C          62.9601   83.4666   12.5510 C.ar    1  UNL1        0.0091
     26 C          64.0807   84.3816   12.9473 C.ar    1  UNL1        0.0096
     27 C          64.8501   84.1225   14.2086 C.ar    1  UNL1        0.0575
     28 CL         65.9707   85.0375   14.6049 Cl      1  UNL1       -0.0823
     29 C          64.4990   82.9484   15.0736 C.ar    1  UNL1        0.0122
     30 C          63.3784   82.0333   14.6773 C.ar    1  UNL1        0.0120
     31 C          62.6089   82.2924   13.4160 C.ar    1  UNL1        0.0553
     32 CL         61.4884   81.3775   13.0197 Cl      1  UNL1       -0.0825
@<TRIPOS>BOND
     1    18    19    2
     2     1    19    1
     3     1     2    1
     4     2     3    1
     5     3     4    1
     6     4     5    1
     7     6     5    1
     8     6     7    1
     9     7     8    1
    10     8     9    1
    11     9    10   ar
    12    10    11   ar
    13    11    12    1
    14    11    13   ar
    15    13    14    1
    16    13    15   ar
    17    15    16   ar
    18    19    20   am
    19    20    24    1
    20    24    25    1
    21    25    26   ar
    22    26    27   ar
    23    27    28    1
    24    27    29   ar
    25    29    30   ar
    26    30    31   ar
    27    31    32    1
    28    20    21    1
    29    21    22    1
    30    22    23    1
    31     6     1    1
    32    16     9   ar
    33    31    25   ar
    34    23    21    1
    35    16     6    1
    36     3    17    1
@<TRIPOS>MOLECULE
*****
 32 36 0 0 0
SMALL
GASTEIGER

@<TRIPOS>ATOM
      1 C          62.0823   89.8475   12.9611 C.3     1  UNL1        0.1211
      2 C          61.7352   89.3213   14.3222 C.3     1  UNL1        0.0804
      3 N          62.5938   89.6689   15.5020 N.3     1  UNL1       -0.2969
      4 C          63.7995   90.5426   15.3207 C.3     1  UNL1        0.0714
      5 C          64.1465   91.0689   13.9596 C.3     1  UNL1        0.0490
      6 C          63.2879   90.7213   12.7799 C.3     1  UNL1        0.1224
      7 O          62.5277   90.4602   11.5133 O.3     1  UNL1       -0.3492
      8 C          63.2261   91.1785   10.3970 C.3     1  UNL1        0.1687
      9 C          64.4179   91.8837   10.9735 C.ar    1  UNL1        0.0079
     10 C          65.4733   92.7466   10.3478 C.ar    1  UNL1        0.0299
     11 C          66.5669   93.3269   11.1947 C.ar    1  UNL1        0.1671
     12 F          67.6223   94.1898   10.5689 F       1  UNL1       -0.2018
     13 C          66.6051   93.0443   12.6673 C.ar    1  UNL1        0.1671
     14 F          67.6987   93.6246   13.5142 F       1  UNL1       -0.2018
     15 C          65.5497   92.1814   13.2931 C.ar    1  UNL1        0.0297
     16 C          64.4561   91.6011   12.4462 C.ar    1  UNL1        0.0033
     17 H          62.9251   88.7878   15.8948 H       1  UNL1        0.1233
     18 O          60.3384   90.5423   11.1649 O.2     1  UNL1       -0.2747
     19 C          61.2236   89.5000   11.7813 C.2     1  UNL1        0.2294
     20 N          61.2503   88.1101   11.2178 N.am    1  UNL1       -0.2769
     21 C          62.1356   87.0678   11.8342 C.3     1  UNL1        0.0758
     22 C          63.3753   86.7011   12.5947 C.3     1  UNL1        0.0215
     23 C          62.4291   85.6292   12.1413 C.3     1  UNL1        0.0215
     24 C          60.3917   87.7625   10.0380 C.3     1  UNL1        0.1209
     25 C          60.8777   86.7708    9.0230 C.ar    1  UNL1        0.0091
     26 C          62.2146   86.1133    9.1971 C.ar    1  UNL1        0.0096
     27 C          62.7005   85.1215    8.1821 C.ar    1  UNL1        0.0575
     28 CL         64.0375   84.4640    8.3563 Cl      1  UNL1       -0.0823
     29 C          61.8496   84.7872    6.9930 C.ar    1  UNL1        0.0122
     30 C          60.5126   85.4447    6.8188 C.ar    1  UNL1        0.0120
     31 C          60.0266   86.4365    7.8338 C.ar    1  UNL1        0.0553
     32 CL         58.6897   87.0939    7.6597 Cl      1  UNL1       -0.0825
@<TRIPOS>BOND
     1    18    19    2
     2     1    19    1
     3     1     2    1
     4     2     3    1
     5     3     4    1
     6     4     5    1
     7     6     5    1
     8     6     7    1
     9     7     8    1
    10     8     9    1
    11     9    10   ar
    12    10    11   ar
    13    11    12    1
    14    11    13   ar
    15    13    14    1
    16    13    15   ar
    17    15    16   ar
    18    19    20   am
    19    20    24    1
    20    24    25    1
    21    25    26   ar
    22    26    27   ar
    23    27    28    1
    24    27    29   ar
    25    29    30   ar
    26    30    31   ar
    27    31    32    1
    28    20    21    1
    29    21    22    1
    30    22    23    1
    31     6     1    1
    32    16     9   ar
    33    31    25   ar
    34    23    21    1
    35    16     6    1
    36     3    17    1
@<TRIPOS>MOLECULE
*****
 32 36 0 0 0
SMALL
GASTEIGER

@<TRIPOS>ATOM
      1 C          63.2051   89.7819   11.2538 C.3     1  UNL1        0.1211
      2 C          62.7857   90.2964    9.9087 C.3     1  UNL1        0.0804
      3 N          63.1934   91.6721    9.4715 N.3     1  UNL1       -0.2969
      4 C          64.0203   92.5334   10.3795 C.3     1  UNL1        0.0714
      5 C          64.4397   92.0189   11.7246 C.3     1  UNL1        0.0490
      6 C          64.0321   90.6431   12.1617 C.3     1  UNL1        0.1224
      7 O          63.7019   89.2958   12.7326 O.3     1  UNL1       -0.3492
      8 C          64.3210   89.2055   14.0959 C.3     1  UNL1        0.1687
      9 C          65.0338   90.4971   14.3677 C.ar    1  UNL1        0.0079
     10 C          65.8224   90.9789   15.5491 C.ar    1  UNL1        0.0299
     11 C          66.4324   92.3492   15.5354 C.ar    1  UNL1        0.1671
     12 F          67.2210   92.8310   16.7168 F       1  UNL1       -0.2018
     13 C          66.2539   93.2376   14.3400 C.ar    1  UNL1        0.1671
     14 F          66.8639   94.6079   14.3262 F       1  UNL1       -0.2018
     15 C          65.4653   92.7559   13.1585 C.ar    1  UNL1        0.0297
     16 C          64.8552   91.3856   13.1723 C.ar    1  UNL1        0.0033
     17 H          62.3339   92.1869    9.2796 H       1  UNL1        0.1233
     18 O          63.6016   87.6797   12.7281 O.2     1  UNL1       -0.2747
     19 C          62.7974   88.4061   11.6910 C.2     1  UNL1        0.2294
     20 N          61.5856   87.7568   11.0911 N.am    1  UNL1       -0.2769
     21 C          60.7814   88.4833   10.0540 C.3     1  UNL1        0.0758
     22 C          60.2433   88.5754    8.6569 C.3     1  UNL1        0.0215
     23 C          59.9266   89.6495    9.6548 C.3     1  UNL1        0.0215
     24 C          61.1780   86.3811   11.5283 C.3     1  UNL1        0.1209
     25 C          62.1551   85.2463   11.4418 C.ar    1  UNL1        0.0091
     26 C          62.5230   84.4776   12.6761 C.ar    1  UNL1        0.0096
     27 C          63.5001   83.3428   12.5896 C.ar    1  UNL1        0.0575
     28 CL         63.8680   82.5741   13.8241 Cl      1  UNL1       -0.0823
     29 C          64.1093   82.9767   11.2687 C.ar    1  UNL1        0.0122
     30 C          63.7414   83.7454   10.0343 C.ar    1  UNL1        0.0120
     31 C          62.7643   84.8802   10.1208 C.ar    1  UNL1        0.0553
     32 CL         62.3964   85.6489    8.8864 Cl      1  UNL1       -0.0825
@<TRIPOS>BOND
     1    18    19    2
     2     1    19    1
     3     1     2    1
     4     2     3    1
     5     3     4    1
     6     4     5    1
     7     6     5    1
     8     6     7    1
     9     7     8    1
    10     8     9    1
    11     9    10   ar
    12    10    11   ar
    13    11    12    1
    14    11    13   ar
    15    13    14    1
    16    13    15   ar
    17    15    16   ar
    18    19    20   am
    19    20    24    1
    20    24    25    1
    21    25    26   ar
    22    26    27   ar
    23    27    28    1
    24    27    29   ar
    25    29    30   ar
    26    30    31   ar
    27    31    32    1
    28    20    21    1
    29    21    22    1
    30    22    23    1
    31     6     1    1
    32    16     9   ar
    33    31    25   ar
    34    23    21    1
    35    16     6    1
    36     3    17    1
