@<TRIPOS>MOLECULE
*****
 34 37 0 0 0
SMALL
GASTEIGER

@<TRIPOS>ATOM
      1 C          62.7472   87.5026   17.7144 C.3     1  UNL1        0.0553
      2 C          63.1726   86.9732   16.3769 C.ar    1  UNL1        0.0931
      3 N          62.9472   85.5302   16.0353 N.ar    1  UNL1       -0.2450
      4 C          63.3726   85.0008   14.6978 C.ar    1  UNL1        0.1018
      5 C          64.0233   85.9145   13.7020 C.ar    1  UNL1        0.0239
      6 C          64.2487   87.3575   14.0436 C.ar    1  UNL1        0.0397
      7 C          63.8233   87.8869   15.3811 C.ar    1  UNL1        0.1518
      8 C          63.1472   83.5577   14.3562 C.ar    1  UNL1        0.1387
      9 N          62.8999   82.4482   15.3349 N.ar    1  UNL1       -0.1275
     10 N          62.7294   81.1755   14.5594 N.ar    1  UNL1       -0.0639
     11 N          62.8713   81.4985   13.1015 N.ar    1  UNL1       -0.2301
     12 C          62.7724   80.5209   11.9681 C.3     1  UNL1        0.1552
     13 C          63.1295   82.9707   12.9759 C.ar    1  UNL1        0.1218
     14 C          63.3342   83.7238   11.6949 C.3     1  UNL1        0.2569
     15 O          62.1498   84.2066   10.9113 O.3     1  UNL1       -0.4278
     16 C          61.8666   85.6761   10.8089 C.2     1  UNL1        0.4053
     17 O          61.1177   86.3737   11.9056 O.2     1  UNL1       -0.2262
     18 N          62.3322   86.4479    9.6100 N.am    1  UNL1       -0.2443
     19 C          62.0490   87.9174    9.5077 C.3     1  UNL1        0.1183
     20 C          63.0811   85.7503    8.5134 C.3     1  UNL1        0.0967
     21 C          62.3316   85.1161    7.3793 C.3     1  UNL1        0.0200
     22 C          62.7202   84.3913    6.1249 C.3     1  UNL1        0.0017
     23 C          61.2717   84.2192    5.7756 C.3     1  UNL1        0.0001
     24 C          60.8831   84.9440    7.0300 C.3     1  UNL1        0.0017
     25 O          64.0487   89.3301   15.7227 O.3     1  UNL1       -0.4780
     26 C          64.5088   90.2883   14.6644 C.3     1  UNL1        0.1663
     27 C          63.6045   90.6293   13.5171 C.3     1  UNL1        0.0435
     28 C          64.0646   91.5876   12.4588 C.3     1  UNL1        0.0041
     29 C          65.4288   92.2048   12.5477 C.3     1  UNL1        0.0058
     30 C          66.3330   91.8639   13.6949 C.3     1  UNL1        0.0401
     31 C          65.8730   90.9056   14.7533 C.3     1  UNL1        0.0490
     32 C          67.6972   92.4811   13.7837 C.2     1  UNL1        0.0501
     33 O          67.9274   93.6669   14.6732 O.co2   1  UNL1       -0.5492
     34 O          68.8312   91.9127   12.9832 O.co2   1  UNL1       -0.5492
@<TRIPOS>UNITY_ATOM_ATTR
33 1
charge -1
@<TRIPOS>BOND
     1     1     2    1
     2     2     3   ar
     3     3     4   ar
     4     4     8    1
     5     8     9   ar
     6     9    10   ar
     7    10    11   ar
     8    11    12    1
     9    11    13   ar
    10    13    14    1
    11    14    15    1
    12    15    16    1
    13    16    17    2
    14    16    18   am
    15    18    19    1
    16    18    20    1
    17    20    21    1
    18    21    22    1
    19    22    23    1
    20    23    24    1
    21     4     5   ar
    22     5     6   ar
    23     6     7   ar
    24     7    25    1
    25    26    25    1
    26    26    27    1
    27    27    28    1
    28    28    29    1
    29    29    30    1
    30    30    32    1
    31    32    33   ar
    32    32    34   ar
    33    30    31    1
    34     7     2   ar
    35    31    26    1
    36    13     8   ar
    37    24    21    1
@<TRIPOS>MOLECULE
*****
 34 37 0 0 0
SMALL
GASTEIGER

@<TRIPOS>ATOM
      1 C          60.4079   89.5871   12.6076 C.3     1  UNL1        0.0553
      2 C          61.5481   90.2382   11.8823 C.ar    1  UNL1        0.0931
      3 N          62.7500   90.7110   12.6449 N.ar    1  UNL1       -0.2450
      4 C          63.8901   91.3621   11.9196 C.ar    1  UNL1        0.1018
      5 C          63.8283   91.5404   10.4315 C.ar    1  UNL1        0.0239
      6 C          62.6264   91.0675    9.6688 C.ar    1  UNL1        0.0397
      7 C          61.4862   90.4164   10.3942 C.ar    1  UNL1        0.1518
      8 C          65.0921   91.8350   12.6823 C.ar    1  UNL1        0.1387
      9 N          66.2051   92.6805   12.1381 N.ar    1  UNL1       -0.1275
     10 N          67.1929   92.9134   13.2427 N.ar    1  UNL1       -0.0639
     11 N          66.6904   92.2118   14.4696 N.ar    1  UNL1       -0.2301
     12 C          67.3674   92.1819   15.8078 C.3     1  UNL1        0.1552
     13 C          65.3920   91.5453   14.1232 C.ar    1  UNL1        0.1218
     14 C          64.5426   90.7319   15.0543 C.3     1  UNL1        0.2569
     15 O          64.4407   89.2465   14.8720 O.3     1  UNL1       -0.4278
     16 C          63.7757   88.4059   15.9214 C.2     1  UNL1        0.4053
     17 O          63.0840   89.0611   17.0800 O.2     1  UNL1       -0.2262
     18 N          63.8024   86.9102   15.8122 N.am    1  UNL1       -0.2443
     19 C          63.1374   86.0696   16.8616 C.3     1  UNL1        0.1183
     20 C          64.4941   86.2550   14.6536 C.3     1  UNL1        0.0967
     21 C          63.9748   84.9587   14.1058 C.3     1  UNL1        0.0200
     22 C          64.6010   83.6808   13.6317 C.3     1  UNL1        0.0017
     23 C          63.2404   83.1255   13.3311 C.3     1  UNL1        0.0001
     24 C          62.6142   84.4034   13.8052 C.3     1  UNL1        0.0017
     25 O          60.2843   89.9436    9.6314 O.3     1  UNL1       -0.4780
     26 C          60.2830   88.5817    9.0029 C.3     1  UNL1        0.1663
     27 C          59.1653   88.1795    8.0868 C.3     1  UNL1        0.0435
     28 C          59.1640   86.8176    7.4582 C.3     1  UNL1        0.0041
     29 C          60.2803   85.8578    7.7456 C.3     1  UNL1        0.0058
     30 C          61.3979   86.2599    8.6616 C.3     1  UNL1        0.0401
     31 C          61.3993   87.6219    9.2903 C.3     1  UNL1        0.0490
     32 C          62.5143   85.3001    8.9490 C.2     1  UNL1        0.0501
     33 O          63.2192   84.6096    7.8192 O.co2   1  UNL1       -0.5492
     34 O          62.9257   85.0309   10.3661 O.co2   1  UNL1       -0.5492
@<TRIPOS>UNITY_ATOM_ATTR
33 1
charge -1
@<TRIPOS>BOND
     1     1     2    1
     2     2     3   ar
     3     3     4   ar
     4     4     8    1
     5     8     9   ar
     6     9    10   ar
     7    10    11   ar
     8    11    12    1
     9    11    13   ar
    10    13    14    1
    11    14    15    1
    12    15    16    1
    13    16    17    2
    14    16    18   am
    15    18    19    1
    16    18    20    1
    17    20    21    1
    18    21    22    1
    19    22    23    1
    20    23    24    1
    21     4     5   ar
    22     5     6   ar
    23     6     7   ar
    24     7    25    1
    25    26    25    1
    26    26    27    1
    27    27    28    1
    28    28    29    1
    29    29    30    1
    30    30    32    1
    31    32    33   ar
    32    32    34   ar
    33    30    31    1
    34     7     2   ar
    35    31    26    1
    36    13     8   ar
    37    24    21    1
@<TRIPOS>MOLECULE
*****
 34 37 0 0 0
SMALL
GASTEIGER

@<TRIPOS>ATOM
      1 C          63.8310   88.1454   13.4861 C.3     1  UNL1        0.0553
      2 C          63.0181   88.7637   12.3875 C.ar    1  UNL1        0.0931
      3 N          62.4340   87.8997   11.3095 N.ar    1  UNL1       -0.2450
      4 C          61.6211   88.5180   10.2108 C.ar    1  UNL1        0.1018
      5 C          61.3924   90.0003   10.1903 C.ar    1  UNL1        0.0239
      6 C          61.9765   90.8643   11.2683 C.ar    1  UNL1        0.0397
      7 C          62.7894   90.2460   12.3669 C.ar    1  UNL1        0.1518
      8 C          61.0369   87.6539    9.1327 C.ar    1  UNL1        0.1387
      9 N          59.8187   87.9666    8.3154 N.ar    1  UNL1       -0.1275
     10 N          59.5973   86.8314    7.3603 N.ar    1  UNL1       -0.0639
     11 N          60.6789   85.8170    7.5873 N.ar    1  UNL1       -0.2301
     12 C          60.8420   84.5218    6.8486 C.3     1  UNL1        0.1552
     13 C          61.5685   86.3254    8.6827 C.ar    1  UNL1        0.1218
     14 C          62.7776   85.6277    9.2318 C.3     1  UNL1        0.2569
     15 O          62.7194   84.9767   10.5818 O.3     1  UNL1       -0.4278
     16 C          63.5548   83.7638   10.8663 C.2     1  UNL1        0.4053
     17 O          64.4645   83.2145    9.8076 O.2     1  UNL1       -0.2262
     18 N          63.4807   83.1003   12.2095 N.am    1  UNL1       -0.2443
     19 C          64.3161   81.8874   12.4940 C.3     1  UNL1        0.1183
     20 C          62.5710   83.6496   13.2682 C.3     1  UNL1        0.0967
     21 C          63.1460   84.3778   14.4469 C.3     1  UNL1        0.0200
     22 C          64.4821   84.9744   14.7765 C.3     1  UNL1        0.0017
     23 C          63.9588   85.4076   16.1138 C.3     1  UNL1        0.0001
     24 C          62.6227   84.8111   15.7842 C.3     1  UNL1        0.0017
     25 O          63.3735   91.1100   13.4450 O.3     1  UNL1       -0.4780
     26 C          64.8302   91.4666   13.4135 C.3     1  UNL1        0.1663
     27 C          65.6787   91.2631   14.6336 C.3     1  UNL1        0.0435
     28 C          67.1354   91.6197   14.6021 C.3     1  UNL1        0.0041
     29 C          67.7435   92.1798   13.3505 C.3     1  UNL1        0.0058
     30 C          66.8950   92.3833   12.1305 C.3     1  UNL1        0.0401
     31 C          65.4383   92.0267   12.1619 C.3     1  UNL1        0.0490
     32 C          67.5032   92.9434   10.8789 C.2     1  UNL1        0.0501
     33 O          67.3344   94.3968   10.5484 O.co2   1  UNL1       -0.5492
     34 O          68.2801   92.0501    9.9578 O.co2   1  UNL1       -0.5492
@<TRIPOS>UNITY_ATOM_ATTR
33 1
charge -1
@<TRIPOS>BOND
     1     1     2    1
     2     2     3   ar
     3     3     4   ar
     4     4     8    1
     5     8     9   ar
     6     9    10   ar
     7    10    11   ar
     8    11    12    1
     9    11    13   ar
    10    13    14    1
    11    14    15    1
    12    15    16    1
    13    16    17    2
    14    16    18   am
    15    18    19    1
    16    18    20    1
    17    20    21    1
    18    21    22    1
    19    22    23    1
    20    23    24    1
    21     4     5   ar
    22     5     6   ar
    23     6     7   ar
    24     7    25    1
    25    26    25    1
    26    26    27    1
    27    27    28    1
    28    28    29    1
    29    29    30    1
    30    30    32    1
    31    32    33   ar
    32    32    34   ar
    33    30    31    1
    34     7     2   ar
    35    31    26    1
    36    13     8   ar
    37    24    21    1
@<TRIPOS>MOLECULE
*****
 34 37 0 0 0
SMALL
GASTEIGER

@<TRIPOS>ATOM
      1 C          63.1339   89.8452   11.9775 C.3     1  UNL1        0.0553
      2 C          63.4641   88.8437   13.0443 C.ar    1  UNL1        0.0931
      3 N          63.5078   87.3815   12.7126 N.ar    1  UNL1       -0.2450
      4 C          63.8379   86.3800   13.7794 C.ar    1  UNL1        0.1018
      5 C          64.1243   86.8407   15.1779 C.ar    1  UNL1        0.0239
      6 C          64.0805   88.3029   15.5095 C.ar    1  UNL1        0.0397
      7 C          63.7504   89.3044   14.4428 C.ar    1  UNL1        0.1518
      8 C          63.8817   84.9178   13.4477 C.ar    1  UNL1        0.1387
      9 N          64.6990   83.8774   14.1545 N.ar    1  UNL1       -0.1275
     10 N          64.4383   82.5559   13.4945 N.ar    1  UNL1       -0.0639
     11 N          63.4597   82.7795   12.3798 N.ar    1  UNL1       -0.2301
     12 C          62.9200   81.7280   11.4562 C.3     1  UNL1        0.1552
     13 C          63.1158   84.2392   12.3508 C.ar    1  UNL1        0.1218
     14 C          62.1717   84.9038   11.3932 C.3     1  UNL1        0.2569
     15 O          62.6987   85.5455   10.1441 O.3     1  UNL1       -0.4278
     16 C          61.7519   85.9612    9.0575 C.2     1  UNL1        0.4053
     17 O          61.9619   85.4764    7.6536 O.2     1  UNL1       -0.2262
     18 N          60.5950   86.8618    9.3748 N.am    1  UNL1       -0.2443
     19 C          59.6482   87.2775    8.2882 C.3     1  UNL1        0.1183
     20 C          60.3850   87.3466   10.7787 C.3     1  UNL1        0.0967
     21 C          59.9859   88.7708   11.0284 C.3     1  UNL1        0.0200
     22 C          59.3529   89.5106   12.1695 C.3     1  UNL1        0.0017
     23 C          59.4216   90.7850   11.3814 C.3     1  UNL1        0.0001
     24 C          60.0545   90.0452   10.2403 C.3     1  UNL1        0.0017
     25 O          63.7066   90.7666   14.7745 O.3     1  UNL1       -0.4780
     26 C          64.9468   91.6012   14.6507 C.3     1  UNL1        0.1663
     27 C          65.6504   92.0866   15.8834 C.3     1  UNL1        0.0435
     28 C          66.8906   92.9212   15.7596 C.3     1  UNL1        0.0041
     29 C          67.4273   93.2705   14.4031 C.3     1  UNL1        0.0058
     30 C          66.7238   92.7851   13.1705 C.3     1  UNL1        0.0401
     31 C          65.4835   91.9505   13.2942 C.3     1  UNL1        0.0490
     32 C          67.2605   93.1343   11.8140 C.2     1  UNL1        0.0501
     33 O          68.1502   92.1690   11.0881 O.co2   1  UNL1       -0.5492
     34 O          66.9075   94.4487   11.1834 O.co2   1  UNL1       -0.5492
@<TRIPOS>UNITY_ATOM_ATTR
33 1
charge -1
@<TRIPOS>BOND
     1     1     2    1
     2     2     3   ar
     3     3     4   ar
     4     4     8    1
     5     8     9   ar
     6     9    10   ar
     7    10    11   ar
     8    11    12    1
     9    11    13   ar
    10    13    14    1
    11    14    15    1
    12    15    16    1
    13    16    17    2
    14    16    18   am
    15    18    19    1
    16    18    20    1
    17    20    21    1
    18    21    22    1
    19    22    23    1
    20    23    24    1
    21     4     5   ar
    22     5     6   ar
    23     6     7   ar
    24     7    25    1
    25    26    25    1
    26    26    27    1
    27    27    28    1
    28    28    29    1
    29    29    30    1
    30    30    32    1
    31    32    33   ar
    32    32    34   ar
    33    30    31    1
    34     7     2   ar
    35    31    26    1
    36    13     8   ar
    37    24    21    1
@<TRIPOS>MOLECULE
*****
 34 37 0 0 0
SMALL
GASTEIGER

@<TRIPOS>ATOM
      1 C          63.1027   88.5289   17.4032 C.3     1  UNL1        0.0553
      2 C          63.3885   87.9327   16.0568 C.ar    1  UNL1        0.0931
      3 N          63.3618   86.4441   15.8747 N.ar    1  UNL1       -0.2450
      4 C          63.6475   85.8479   14.5283 C.ar    1  UNL1        0.1018
      5 C          63.9601   86.7403   13.3639 C.ar    1  UNL1        0.0239
      6 C          63.9868   88.2289   13.5460 C.ar    1  UNL1        0.0397
      7 C          63.7010   88.8251   14.8924 C.ar    1  UNL1        0.1518
      8 C          63.6208   84.3591   14.3463 C.ar    1  UNL1        0.1387
      9 N          64.1911   83.3448   15.2928 N.ar    1  UNL1       -0.1275
     10 N          63.9418   81.9822   14.7173 N.ar    1  UNL1       -0.0639
     11 N          63.2174   82.1544   13.4151 N.ar    1  UNL1       -0.2301
     12 C          62.7699   81.0513   12.5025 C.3     1  UNL1        0.1552
     13 C          63.0190   83.6234   13.1859 C.ar    1  UNL1        0.1218
     14 C          62.3384   84.2472   12.0037 C.3     1  UNL1        0.2569
     15 O          63.1454   84.9837   10.9760 O.3     1  UNL1       -0.4278
     16 C          62.5723   85.2376    9.6132 C.2     1  UNL1        0.4053
     17 O          63.1311   84.5219    8.4193 O.2     1  UNL1       -0.2262
     18 N          61.4404   86.2073    9.4444 N.am    1  UNL1       -0.2443
     19 C          60.8673   86.4612    8.0816 C.3     1  UNL1        0.1183
     20 C          60.8816   86.9230   10.6383 C.3     1  UNL1        0.0967
     21 C          61.1684   88.3815   10.8405 C.3     1  UNL1        0.0200
     22 C          60.5264   89.4907   11.6197 C.3     1  UNL1        0.0017
     23 C          61.5742   90.4438   11.1263 C.3     1  UNL1        0.0001
     24 C          62.2163   89.3346   10.3471 C.3     1  UNL1        0.0017
     25 O          63.7278   90.3139   15.0744 O.3     1  UNL1       -0.4780
     26 C          64.7020   91.1472   14.2958 C.3     1  UNL1        0.1663
     27 C          64.4085   91.5080   12.8697 C.3     1  UNL1        0.0435
     28 C          65.3828   92.3413   12.0911 C.3     1  UNL1        0.0041
     29 C          66.6506   92.8140   12.7386 C.3     1  UNL1        0.0058
     30 C          66.9442   92.4533   14.1646 C.3     1  UNL1        0.0401
     31 C          65.9699   91.6199   14.9433 C.3     1  UNL1        0.0490
     32 C          68.2120   92.9260   14.8121 C.2     1  UNL1        0.0501
     33 O          69.5393   92.5683   14.2118 O.co2   1  UNL1       -0.5492
     34 O          68.1525   93.7564   16.0598 O.co2   1  UNL1       -0.5492
@<TRIPOS>UNITY_ATOM_ATTR
33 1
charge -1
@<TRIPOS>BOND
     1     1     2    1
     2     2     3   ar
     3     3     4   ar
     4     4     8    1
     5     8     9   ar
     6     9    10   ar
     7    10    11   ar
     8    11    12    1
     9    11    13   ar
    10    13    14    1
    11    14    15    1
    12    15    16    1
    13    16    17    2
    14    16    18   am
    15    18    19    1
    16    18    20    1
    17    20    21    1
    18    21    22    1
    19    22    23    1
    20    23    24    1
    21     4     5   ar
    22     5     6   ar
    23     6     7   ar
    24     7    25    1
    25    26    25    1
    26    26    27    1
    27    27    28    1
    28    28    29    1
    29    29    30    1
    30    30    32    1
    31    32    33   ar
    32    32    34   ar
    33    30    31    1
    34     7     2   ar
    35    31    26    1
    36    13     8   ar
    37    24    21    1
@<TRIPOS>MOLECULE
*****
 34 37 0 0 0
SMALL
GASTEIGER

@<TRIPOS>ATOM
      1 C          62.5077   88.9741   11.1323 C.3     1  UNL1        0.0553
      2 C          63.0842   88.4515   12.4147 C.ar    1  UNL1        0.0931
      3 N          63.1658   86.9728   12.6527 N.ar    1  UNL1       -0.2450
      4 C          63.7423   86.4503   13.9352 C.ar    1  UNL1        0.1018
      5 C          64.2371   87.4064   14.9796 C.ar    1  UNL1        0.0239
      6 C          64.1554   88.8851   14.7416 C.ar    1  UNL1        0.0397
      7 C          63.5790   89.4077   13.4591 C.ar    1  UNL1        0.1518
      8 C          63.8239   84.9715   14.1732 C.ar    1  UNL1        0.1387
      9 N          64.5038   84.3008   15.3298 N.ar    1  UNL1       -0.1275
     10 N          64.3401   82.8186   15.1677 N.ar    1  UNL1       -0.0639
     11 N          63.5589   82.5732   13.9109 N.ar    1  UNL1       -0.2301
     12 C          63.1657   81.2327   13.3647 C.3     1  UNL1        0.1552
     13 C          63.2399   83.9038   13.2962 C.ar    1  UNL1        0.1218
     14 C          62.4717   84.1274   12.0274 C.3     1  UNL1        0.2569
     15 O          62.9360   85.1578   11.0412 O.3     1  UNL1       -0.4278
     16 C          62.8836   84.8660    9.5708 C.2     1  UNL1        0.4053
     17 O          63.8900   83.9407    8.9535 O.2     1  UNL1       -0.2262
     18 N          61.8248   85.4994    8.7178 N.am    1  UNL1       -0.2443
     19 C          61.7725   85.2076    7.2474 C.3     1  UNL1        0.1183
     20 C          60.8184   86.4246    9.3351 C.3     1  UNL1        0.0967
     21 C          60.1015   87.4294    8.4826 C.3     1  UNL1        0.0200
     22 C          60.1823   88.9160    8.3004 C.3     1  UNL1        0.0017
     23 C          59.0876   88.8501    7.2771 C.3     1  UNL1        0.0001
     24 C          59.0068   87.3635    7.4594 C.3     1  UNL1        0.0017
     25 O          63.4974   90.8865   13.2211 O.3     1  UNL1       -0.4780
     26 C          64.7397   91.6647   12.9035 C.3     1  UNL1        0.1663
     27 C          64.9810   92.1548   11.5064 C.3     1  UNL1        0.0435
     28 C          66.2234   92.9330   11.1888 C.3     1  UNL1        0.0041
     29 C          67.2244   93.2212   12.2681 C.3     1  UNL1        0.0058
     30 C          66.9831   92.7311   13.6651 C.3     1  UNL1        0.0401
     31 C          65.7407   91.9529   13.9828 C.3     1  UNL1        0.0490
     32 C          67.9841   93.0193   14.7444 C.2     1  UNL1        0.0501
     33 O          67.5252   93.5472   16.0714 O.co2   1  UNL1       -0.5492
     34 O          69.4439   92.7796   14.4968 O.co2   1  UNL1       -0.5492
@<TRIPOS>UNITY_ATOM_ATTR
33 1
charge -1
@<TRIPOS>BOND
     1     1     2    1
     2     2     3   ar
     3     3     4   ar
     4     4     8    1
     5     8     9   ar
     6     9    10   ar
     7    10    11   ar
     8    11    12    1
     9    11    13   ar
    10    13    14    1
    11    14    15    1
    12    15    16    1
    13    16    17    2
    14    16    18   am
    15    18    19    1
    16    18    20    1
    17    20    21    1
    18    21    22    1
    19    22    23    1
    20    23    24    1
    21     4     5   ar
    22     5     6   ar
    23     6     7   ar
    24     7    25    1
    25    26    25    1
    26    26    27    1
    27    27    28    1
    28    28    29    1
    29    29    30    1
    30    30    32    1
    31    32    33   ar
    32    32    34   ar
    33    30    31    1
    34     7     2   ar
    35    31    26    1
    36    13     8   ar
    37    24    21    1
@<TRIPOS>MOLECULE
*****
 34 37 0 0 0
SMALL
GASTEIGER

@<TRIPOS>ATOM
      1 C          62.7478   86.2574   17.6804 C.3     1  UNL1        0.0553
      2 C          63.2074   86.5360   16.2800 C.ar    1  UNL1        0.0931
      3 N          63.5600   87.9354   15.8708 N.ar    1  UNL1       -0.2450
      4 C          64.0195   88.2140   14.4704 C.ar    1  UNL1        0.1018
      5 C          64.1264   87.0933   13.4791 C.ar    1  UNL1        0.0239
      6 C          63.7738   85.6940   13.8883 C.ar    1  UNL1        0.0397
      7 C          63.3143   85.4153   15.2888 C.ar    1  UNL1        0.1518
      8 C          64.3721   89.6134   14.0612 C.ar    1  UNL1        0.1387
      9 N          65.1628   90.5965   14.8725 N.ar    1  UNL1       -0.1275
     10 N          65.2752   91.8661   14.0816 N.ar    1  UNL1       -0.0639
     11 N          64.5540   91.6676   12.7814 N.ar    1  UNL1       -0.2301
     12 C          64.4153   92.6831   11.6861 C.3     1  UNL1        0.1552
     13 C          63.9958   90.2754   12.7688 C.ar    1  UNL1        0.1218
     14 C          63.2010   89.6542   11.6587 C.3     1  UNL1        0.2569
     15 O          61.7724   89.2594   11.8891 O.3     1  UNL1       -0.4278
     16 C          60.7813   89.3404   10.7660 C.2     1  UNL1        0.4053
     17 O          60.0664   90.6294   10.4882 O.2     1  UNL1       -0.2262
     18 N          60.5052   88.1323    9.9209 N.am    1  UNL1       -0.2443
     19 C          59.5142   88.2133    8.7978 C.3     1  UNL1        0.1183
     20 C          61.2201   86.8432   10.1988 C.3     1  UNL1        0.0967
     21 C          61.8099   86.0539    9.0677 C.3     1  UNL1        0.0200
     22 C          63.0831   85.2889    8.8587 C.3     1  UNL1        0.0017
     23 C          62.6437   84.9376    7.4682 C.3     1  UNL1        0.0001
     24 C          61.3705   85.7025    7.6772 C.3     1  UNL1        0.0017
     25 O          62.9617   84.0159   15.6979 O.3     1  UNL1       -0.4780
     26 C          62.7008   82.9721   14.6528 C.3     1  UNL1        0.1663
     27 C          61.7207   81.8690   14.9226 C.3     1  UNL1        0.0435
     28 C          61.4599   80.8253   13.8774 C.3     1  UNL1        0.0041
     29 C          62.1791   80.8844   12.5624 C.3     1  UNL1        0.0058
     30 C          63.1591   81.9874   12.2926 C.3     1  UNL1        0.0401
     31 C          63.4200   83.0313   13.3378 C.3     1  UNL1        0.0490
     32 C          63.8784   82.0466   10.9776 C.2     1  UNL1        0.0501
     33 O          63.4961   81.1090    9.8708 O.co2   1  UNL1       -0.5492
     34 O          64.9797   83.0434   10.7693 O.co2   1  UNL1       -0.5492
@<TRIPOS>UNITY_ATOM_ATTR
33 1
charge -1
@<TRIPOS>BOND
     1     1     2    1
     2     2     3   ar
     3     3     4   ar
     4     4     8    1
     5     8     9   ar
     6     9    10   ar
     7    10    11   ar
     8    11    12    1
     9    11    13   ar
    10    13    14    1
    11    14    15    1
    12    15    16    1
    13    16    17    2
    14    16    18   am
    15    18    19    1
    16    18    20    1
    17    20    21    1
    18    21    22    1
    19    22    23    1
    20    23    24    1
    21     4     5   ar
    22     5     6   ar
    23     6     7   ar
    24     7    25    1
    25    26    25    1
    26    26    27    1
    27    27    28    1
    28    28    29    1
    29    29    30    1
    30    30    32    1
    31    32    33   ar
    32    32    34   ar
    33    30    31    1
    34     7     2   ar
    35    31    26    1
    36    13     8   ar
    37    24    21    1
@<TRIPOS>MOLECULE
*****
 34 37 0 0 0
SMALL
GASTEIGER

@<TRIPOS>ATOM
      1 C          63.1097   90.0529   12.0088 C.3     1  UNL1        0.0553
      2 C          63.4443   89.0635   13.0854 C.ar    1  UNL1        0.0931
      3 N          63.5188   87.6005   12.7626 N.ar    1  UNL1       -0.2450
      4 C          63.8535   86.6111   13.8392 C.ar    1  UNL1        0.1018
      5 C          64.1137   87.0846   15.2385 C.ar    1  UNL1        0.0239
      6 C          64.0392   88.5475   15.5612 C.ar    1  UNL1        0.0397
      7 C          63.7045   89.5370   14.4846 C.ar    1  UNL1        0.1518
      8 C          63.9280   85.1481   13.5164 C.ar    1  UNL1        0.1387
      9 N          64.7569   84.1271   14.2377 N.ar    1  UNL1       -0.1275
     10 N          64.5278   82.7973   13.5827 N.ar    1  UNL1       -0.0639
     11 N          63.5572   82.9964   12.4564 N.ar    1  UNL1       -0.2301
     12 C          63.0470   81.9299   11.5333 C.3     1  UNL1        0.1552
     13 C          63.1865   84.4492   12.4155 C.ar    1  UNL1        0.1218
     14 C          62.2405   85.0907   11.4441 C.3     1  UNL1        0.2569
     15 O          61.2010   86.0544   11.9347 O.3     1  UNL1       -0.4278
     16 C          60.7503   87.1832   11.0556 C.2     1  UNL1        0.4053
     17 O          59.7851   88.2039   11.5813 O.2     1  UNL1       -0.2262
     18 N          61.2650   87.2912    9.6508 N.am    1  UNL1       -0.2443
     19 C          60.8143   88.4200    8.7717 C.3     1  UNL1        0.1183
     20 C          62.2302   86.2705    9.1251 C.3     1  UNL1        0.0967
     21 C          61.9217   85.5293    7.8580 C.3     1  UNL1        0.0200
     22 C          60.6722   85.2176    7.0888 C.3     1  UNL1        0.0017
     23 C          61.4855   84.4810    6.0662 C.3     1  UNL1        0.0001
     24 C          62.7349   84.7926    6.8353 C.3     1  UNL1        0.0017
     25 O          63.6301   91.0000   14.8074 O.3     1  UNL1       -0.4780
     26 C          64.8469   91.8641   14.6569 C.3     1  UNL1        0.1663
     27 C          65.6978   92.1760   15.8522 C.3     1  UNL1        0.0435
     28 C          66.9146   93.0402   15.7017 C.3     1  UNL1        0.0041
     29 C          67.2805   93.5924   14.3559 C.3     1  UNL1        0.0058
     30 C          66.4296   93.2805   13.1607 C.3     1  UNL1        0.0401
     31 C          65.2128   92.4163   13.3111 C.3     1  UNL1        0.0490
     32 C          66.7955   93.8327   11.8149 C.2     1  UNL1        0.0501
     33 O          67.7319   93.0737   10.9221 O.co2   1  UNL1       -0.5492
     34 O          66.2251   95.1440   11.3619 O.co2   1  UNL1       -0.5492
@<TRIPOS>UNITY_ATOM_ATTR
33 1
charge -1
@<TRIPOS>BOND
     1     1     2    1
     2     2     3   ar
     3     3     4   ar
     4     4     8    1
     5     8     9   ar
     6     9    10   ar
     7    10    11   ar
     8    11    12    1
     9    11    13   ar
    10    13    14    1
    11    14    15    1
    12    15    16    1
    13    16    17    2
    14    16    18   am
    15    18    19    1
    16    18    20    1
    17    20    21    1
    18    21    22    1
    19    22    23    1
    20    23    24    1
    21     4     5   ar
    22     5     6   ar
    23     6     7   ar
    24     7    25    1
    25    26    25    1
    26    26    27    1
    27    27    28    1
    28    28    29    1
    29    29    30    1
    30    30    32    1
    31    32    33   ar
    32    32    34   ar
    33    30    31    1
    34     7     2   ar
    35    31    26    1
    36    13     8   ar
    37    24    21    1
@<TRIPOS>MOLECULE
*****
 34 37 0 0 0
SMALL
GASTEIGER

@<TRIPOS>ATOM
      1 C          59.9893   89.3096   12.3062 C.3     1  UNL1        0.0553
      2 C          61.3186   89.9899   12.1635 C.ar    1  UNL1        0.0931
      3 N          62.0887   90.3950   13.3852 N.ar    1  UNL1       -0.2450
      4 C          63.4180   91.0752   13.2426 C.ar    1  UNL1        0.1018
      5 C          63.9770   91.3504   11.8782 C.ar    1  UNL1        0.0239
      6 C          63.2069   90.9454   10.6564 C.ar    1  UNL1        0.0397
      7 C          61.8776   90.2651   10.7991 C.ar    1  UNL1        0.1518
      8 C          64.1882   91.4803   14.4644 C.ar    1  UNL1        0.1387
      9 N          63.6210   91.6776   15.8390 N.ar    1  UNL1       -0.1275
     10 N          64.7431   92.0784   16.7502 N.ar    1  UNL1       -0.0639
     11 N          66.0037   92.1288   15.9388 N.ar    1  UNL1       -0.2301
     12 C          67.3678   92.4862   16.4503 C.3     1  UNL1        0.1552
     13 C          65.6608   91.7592   14.5261 C.ar    1  UNL1        0.1218
     14 C          66.6217   91.6820   13.3769 C.3     1  UNL1        0.2569
     15 O          66.4904   92.6329   12.2243 O.3     1  UNL1       -0.4278
     16 C          66.3602   94.1055   12.4780 C.2     1  UNL1        0.4053
     17 O          66.4016   94.6313   13.8822 O.2     1  UNL1       -0.2262
     18 N          66.1884   95.0524   11.3274 N.am    1  UNL1       -0.2443
     19 C          66.0581   96.5250   11.5810 C.3     1  UNL1        0.1183
     20 C          66.1469   94.5266    9.9231 C.3     1  UNL1        0.0967
     21 C          67.2344   93.6188    9.4298 C.3     1  UNL1        0.0200
     22 C          68.2414   93.6756    8.3196 C.3     1  UNL1        0.0017
     23 C          68.7723   92.3348    8.7324 C.3     1  UNL1        0.0001
     24 C          67.7653   92.2780    9.8427 C.3     1  UNL1        0.0017
     25 O          61.1074   89.8600    9.5773 O.3     1  UNL1       -0.4780
     26 C          61.0173   88.4129    9.1931 C.3     1  UNL1        0.1663
     27 C          59.9928   87.9648    8.1932 C.3     1  UNL1        0.0435
     28 C          59.9027   86.5176    7.8090 C.3     1  UNL1        0.0041
     29 C          60.8370   85.5186    8.4246 C.3     1  UNL1        0.0058
     30 C          61.8615   85.9667    9.4244 C.3     1  UNL1        0.0401
     31 C          61.9516   87.4139    9.8087 C.3     1  UNL1        0.0490
     32 C          62.7958   84.9677   10.0400 C.2     1  UNL1        0.0501
     33 O          62.9173   84.8747   11.5322 O.co2   1  UNL1       -0.5492
     34 O          63.6086   84.0616    9.1635 O.co2   1  UNL1       -0.5492
@<TRIPOS>UNITY_ATOM_ATTR
33 1
charge -1
@<TRIPOS>BOND
     1     1     2    1
     2     2     3   ar
     3     3     4   ar
     4     4     8    1
     5     8     9   ar
     6     9    10   ar
     7    10    11   ar
     8    11    12    1
     9    11    13   ar
    10    13    14    1
    11    14    15    1
    12    15    16    1
    13    16    17    2
    14    16    18   am
    15    18    19    1
    16    18    20    1
    17    20    21    1
    18    21    22    1
    19    22    23    1
    20    23    24    1
    21     4     5   ar
    22     5     6   ar
    23     6     7   ar
    24     7    25    1
    25    26    25    1
    26    26    27    1
    27    27    28    1
    28    28    29    1
    29    29    30    1
    30    30    32    1
    31    32    33   ar
    32    32    34   ar
    33    30    31    1
    34     7     2   ar
    35    31    26    1
    36    13     8   ar
    37    24    21    1
