@<TRIPOS>MOLECULE
*****
 39 44 0 0 0
SMALL
GASTEIGER

@<TRIPOS>ATOM
      1 C          62.9540   89.2235   15.6269 C.3     1  UNL1        0.0553
      2 C          63.7036   90.0667   14.6385 C.ar    1  UNL1        0.0931
      3 N          64.9814   90.7398   15.0436 N.ar    1  UNL1       -0.2465
      4 C          65.7310   91.5831   14.0551 C.ar    1  UNL1        0.0856
      5 C          65.2028   91.7532   12.6616 C.ar    1  UNL1        0.0379
      6 C          63.9250   91.0802   12.2565 C.ar    1  UNL1        0.0411
      7 C          63.1754   90.2369   13.2449 C.ar    1  UNL1        0.1521
      8 C          65.9524   92.5965   11.6731 C.ar    1  UNL1        0.0777
      9 C          67.2911   92.1473   11.1669 C.ar    1  UNL1        0.1176
     10 N          68.0406   92.9906   10.1785 N.ar    1  UNL1       -0.2209
     11 C          67.4515   94.2830    9.6962 C.ar    1  UNL1        0.2006
     12 N          67.9534   95.3169    8.7322 N.ar    1  UNL1       -0.1272
     13 N          66.9248   96.4050    8.6426 N.ar    1  UNL1       -0.1493
     14 C          65.7874   96.0436    9.5512 C.ar    1  UNL1        0.0995
     15 C          64.5429   96.8518    9.7702 C.3     1  UNL1        0.0557
     16 C          66.1129   94.7322   10.2024 C.ar    1  UNL1        0.1101
     17 N          65.3634   93.8889   11.1908 N.ar    1  UNL1       -0.3484
     18 H          64.4847   94.1837   11.5230 H       1  UNL1        0.1661
     19 C          67.0089   92.2562   14.4603 C.ar    1  UNL1        0.0584
     20 C          67.1295   93.4515   15.3583 C.ar    1  UNL1        0.0453
     21 C          68.5856   93.7862   15.4916 C.ar    1  UNL1        0.1798
     22 O          69.3649   92.7977   14.6758 O.2     1  UNL1       -0.4473
     23 C          68.3904   91.8521   14.0385 C.ar    1  UNL1        0.1812
     24 O          61.8976   89.5639   12.8398 O.3     1  UNL1       -0.4728
     25 C          61.1981   89.9789   11.5795 C.3     1  UNL1        0.2211
     26 C          60.7511   88.9410   10.5931 C.3     1  UNL1        0.0995
     27 N          60.2959   89.3536    9.2247 N.3     1  UNL1       -0.3190
     28 H          60.0303   88.5261    8.6908 H       1  UNL1        0.1189
     29 H          61.0548   89.8383    8.7456 H       1  UNL1        0.1189
     30 C          60.7595   87.4905   10.9751 C.3     1  UNL1        0.0472
     31 C          61.6167   86.5203   10.2174 C.2     1  UNL1       -0.0005
     32 C          61.8394   86.5124    8.7340 C.2     1  UNL1        0.0942
     33 N          62.7621   85.3749    8.4099 N.2     1  UNL1       -0.2482
     34 C          63.1095   84.6799    9.6929 C.2     1  UNL1        0.0631
     35 C          63.9790   83.4939    9.9884 C.3     1  UNL1        0.0717
     36 C          64.1407   83.0158   11.4009 C.2     1  UNL1       -0.0198
     37 C          63.4328   83.7237   12.5180 C.2     1  UNL1       -0.0042
     38 C          62.5633   84.9097   12.2225 C.2     1  UNL1        0.0006
     39 C          62.4017   85.3878   10.8100 C.2     1  UNL1        0.0114
@<TRIPOS>BOND
     1     1     2    1
     2     2     3   ar
     3     3     4   ar
     4     4    19    1
     5    19    20   ar
     6    20    21   ar
     7    21    22   ar
     8    22    23   ar
     9     4     5   ar
    10     5     8    1
    11     8     9   ar
    12     9    10   ar
    13    10    11   ar
    14    11    12   ar
    15    12    13   ar
    16    13    14   ar
    17    14    15    1
    18    14    16   ar
    19    16    17   ar
    20     5     6   ar
    21     6     7   ar
    22     7    24    1
    23    24    25    1
    24    25    26    1
    25    26    27    1
    26    26    30    1
    27    30    31    1
    28    31    32    2
    29    32    33    1
    30    33    34    2
    31    34    35    1
    32    35    36    1
    33    36    37    2
    34    37    38    1
    35    38    39    2
    36     7     2   ar
    37    39    31    1
    38    23    19   ar
    39    17     8   ar
    40    39    34    1
    41    16    11    1
    42    17    18    1
    43    27    28    1
    44    27    29    1
@<TRIPOS>MOLECULE
*****
 39 44 0 0 0
SMALL
GASTEIGER

@<TRIPOS>ATOM
      1 C          61.6032   90.6752   10.5218 C.3     1  UNL1        0.0553
      2 C          61.8981   89.2069   10.6060 C.ar    1  UNL1        0.0931
      3 N          61.6398   88.3210    9.4234 N.ar    1  UNL1       -0.2465
      4 C          61.9347   86.8526    9.5077 C.ar    1  UNL1        0.0856
      5 C          62.4878   86.2703   10.7745 C.ar    1  UNL1        0.0379
      6 C          62.7461   87.1562   11.9571 C.ar    1  UNL1        0.0411
      7 C          62.4512   88.6245   11.8729 C.ar    1  UNL1        0.1521
      8 C          62.7827   84.8019   10.8588 C.ar    1  UNL1        0.0777
      9 C          63.6374   84.1474    9.8142 C.ar    1  UNL1        0.1176
     10 N          63.9322   82.6791    9.8986 N.ar    1  UNL1       -0.2209
     11 C          63.3724   81.8653   11.0274 C.ar    1  UNL1        0.2006
     12 N          63.4911   80.4099   11.3708 N.ar    1  UNL1       -0.1272
     13 N          62.7097   80.1650   12.6276 N.ar    1  UNL1       -0.1493
     14 C          62.1082   81.4690   13.0609 C.ar    1  UNL1        0.0995
     15 C          61.2481   81.6843   14.2708 C.3     1  UNL1        0.0557
     16 C          62.5178   82.5198   12.0720 C.ar    1  UNL1        0.1101
     17 N          62.2229   83.9881   11.9877 N.ar    1  UNL1       -0.3484
     18 H          61.6620   84.4177   12.6733 H       1  UNL1        0.1661
     19 C          61.6764   85.9667    8.3251 C.ar    1  UNL1        0.0584
     20 C          62.7157   85.2393    7.5247 C.ar    1  UNL1        0.0453
     21 C          62.0152   84.4757    6.4402 C.ar    1  UNL1        0.1798
     22 O          60.5428   84.7312    6.5704 O.2     1  UNL1       -0.4473
     23 C          60.3335   85.6527    7.7353 C.ar    1  UNL1        0.1812
     24 O          62.7095   89.5104   13.0554 O.3     1  UNL1       -0.4728
     25 C          63.8340   89.1957   13.9969 C.3     1  UNL1        0.2211
     26 C          63.9239   89.8981   15.3192 C.3     1  UNL1        0.0995
     27 N          63.3786   89.2445   16.5542 N.3     1  UNL1       -0.3190
     28 H          63.5234   89.8583   17.3559 H       1  UNL1        0.1189
     29 H          63.8610   88.3597   16.7119 H       1  UNL1        0.1189
     30 C          64.5592   91.2542   15.4064 C.3     1  UNL1        0.0472
     31 C          65.7584   91.5761   14.5648 C.2     1  UNL1       -0.0005
     32 C          67.1851   91.5810   15.0281 C.2     1  UNL1        0.0942
     33 N          68.0499   91.9577   13.8618 N.2     1  UNL1       -0.2482
     34 C          67.1577   92.1855   12.6777 C.2     1  UNL1        0.0631
     35 C          67.4519   92.5773   11.2599 C.3     1  UNL1        0.0717
     36 C          66.3298   92.7332   10.2767 C.2     1  UNL1       -0.0198
     37 C          64.9136   92.4974   10.7113 C.2     1  UNL1       -0.0042
     38 C          64.6195   92.1057   12.1290 C.2     1  UNL1        0.0006
     39 C          65.7415   91.9497   13.1122 C.2     1  UNL1        0.0114
@<TRIPOS>BOND
     1     1     2    1
     2     2     3   ar
     3     3     4   ar
     4     4    19    1
     5    19    20   ar
     6    20    21   ar
     7    21    22   ar
     8    22    23   ar
     9     4     5   ar
    10     5     8    1
    11     8     9   ar
    12     9    10   ar
    13    10    11   ar
    14    11    12   ar
    15    12    13   ar
    16    13    14   ar
    17    14    15    1
    18    14    16   ar
    19    16    17   ar
    20     5     6   ar
    21     6     7   ar
    22     7    24    1
    23    24    25    1
    24    25    26    1
    25    26    27    1
    26    26    30    1
    27    30    31    1
    28    31    32    2
    29    32    33    1
    30    33    34    2
    31    34    35    1
    32    35    36    1
    33    36    37    2
    34    37    38    1
    35    38    39    2
    36     7     2   ar
    37    39    31    1
    38    23    19   ar
    39    17     8   ar
    40    39    34    1
    41    16    11    1
    42    17    18    1
    43    27    28    1
    44    27    29    1
@<TRIPOS>MOLECULE
*****
 39 44 0 0 0
SMALL
GASTEIGER

@<TRIPOS>ATOM
      1 C          62.1188   90.7572   11.0187 C.3     1  UNL1        0.0553
      2 C          62.3149   89.2701   11.0079 C.ar    1  UNL1        0.0931
      3 N          61.8506   88.4609    9.8334 N.ar    1  UNL1       -0.2465
      4 C          62.0467   86.9737    9.8227 C.ar    1  UNL1        0.0856
      5 C          62.7070   86.2959   10.9866 C.ar    1  UNL1        0.0379
      6 C          63.1712   87.1052   12.1611 C.ar    1  UNL1        0.0411
      7 C          62.9752   88.5923   12.1718 C.ar    1  UNL1        0.1521
      8 C          62.9030   84.8088   10.9759 C.ar    1  UNL1        0.0777
      9 C          63.6937   84.1644    9.8761 C.ar    1  UNL1        0.1176
     10 N          63.8898   82.6774    9.8655 N.ar    1  UNL1       -0.2209
     11 C          63.2951   81.8347   10.9546 C.ar    1  UNL1        0.2006
     12 N          63.3206   80.3562   11.2069 N.ar    1  UNL1       -0.1272
     13 N          62.5456   80.0869   12.4627 N.ar    1  UNL1       -0.1493
     14 C          62.0412   81.3989   12.9864 C.ar    1  UNL1        0.0995
     15 C          61.2181   81.5961   14.2248 C.3     1  UNL1        0.0557
     16 C          62.5044   82.4790   12.0544 C.ar    1  UNL1        0.1101
     17 N          62.3084   83.9661   12.0650 N.ar    1  UNL1       -0.3484
     18 H          61.7894   84.3890   12.7869 H       1  UNL1        0.1661
     19 C          61.5824   86.1645    8.6482 C.ar    1  UNL1        0.0584
     20 C          62.4562   85.3654    7.7273 C.ar    1  UNL1        0.0453
     21 C          61.5767   84.7193    6.6983 C.ar    1  UNL1        0.1798
     22 O          60.1593   85.1190    6.9831 O.2     1  UNL1       -0.4473
     23 C          60.1628   86.0121    8.1882 C.ar    1  UNL1        0.1812
     24 O          63.4394   89.4015   13.3464 O.3     1  UNL1       -0.4728
     25 C          62.5769   89.5128   14.5685 C.3     1  UNL1        0.2211
     26 C          63.1670   89.9909   15.8620 C.3     1  UNL1        0.0995
     27 N          63.4553   91.4494   16.0611 N.3     1  UNL1       -0.3190
     28 H          63.8507   91.5941   16.9901 H       1  UNL1        0.1189
     29 H          62.5899   91.9821   15.9732 H       1  UNL1        0.1189
     30 C          63.4687   89.0105   16.9564 C.3     1  UNL1        0.0472
     31 C          63.0489   87.5773   16.8162 C.2     1  UNL1       -0.0005
     32 C          61.8468   86.9445   17.4524 C.2     1  UNL1        0.0942
     33 N          61.8124   85.5013   17.0446 N.2     1  UNL1       -0.2482
     34 C          62.9931   85.2423   16.1564 C.2     1  UNL1        0.0631
     35 C          63.4711   84.0039   15.4580 C.3     1  UNL1        0.0717
     36 C          64.7133   84.0486   14.6184 C.2     1  UNL1       -0.0198
     37 C          65.4775   85.3316   14.4772 C.2     1  UNL1       -0.0042
     38 C          64.9994   86.5700   15.1757 C.2     1  UNL1        0.0006
     39 C          63.7572   86.5253   16.0153 C.2     1  UNL1        0.0114
@<TRIPOS>BOND
     1     1     2    1
     2     2     3   ar
     3     3     4   ar
     4     4    19    1
     5    19    20   ar
     6    20    21   ar
     7    21    22   ar
     8    22    23   ar
     9     4     5   ar
    10     5     8    1
    11     8     9   ar
    12     9    10   ar
    13    10    11   ar
    14    11    12   ar
    15    12    13   ar
    16    13    14   ar
    17    14    15    1
    18    14    16   ar
    19    16    17   ar
    20     5     6   ar
    21     6     7   ar
    22     7    24    1
    23    24    25    1
    24    25    26    1
    25    26    27    1
    26    26    30    1
    27    30    31    1
    28    31    32    2
    29    32    33    1
    30    33    34    2
    31    34    35    1
    32    35    36    1
    33    36    37    2
    34    37    38    1
    35    38    39    2
    36     7     2   ar
    37    39    31    1
    38    23    19   ar
    39    17     8   ar
    40    39    34    1
    41    16    11    1
    42    17    18    1
    43    27    28    1
    44    27    29    1
@<TRIPOS>MOLECULE
*****
 39 44 0 0 0
SMALL
GASTEIGER

@<TRIPOS>ATOM
      1 C          63.1626   86.0710   18.3368 C.3     1  UNL1        0.0553
      2 C          63.1973   85.7951   16.8629 C.ar    1  UNL1        0.0931
      3 N          62.9153   84.4134   16.3516 N.ar    1  UNL1       -0.2465
      4 C          62.9500   84.1375   14.8776 C.ar    1  UNL1        0.0856
      5 C          63.2667   85.2433   13.9149 C.ar    1  UNL1        0.0379
      6 C          63.5486   86.6250   14.4261 C.ar    1  UNL1        0.0411
      7 C          63.5139   86.9009   15.9001 C.ar    1  UNL1        0.1521
      8 C          63.3014   84.9674   12.4408 C.ar    1  UNL1        0.0777
      9 C          64.2556   83.9493   11.8906 C.ar    1  UNL1        0.1176
     10 N          64.2903   83.6735   10.4166 N.ar    1  UNL1       -0.2209
     11 C          63.3707   84.4158    9.4928 C.ar    1  UNL1        0.2006
     12 N          63.1797   84.3572    8.0061 N.ar    1  UNL1       -0.1272
     13 N          62.1073   85.3392    7.6376 N.ar    1  UNL1       -0.1493
     14 C          61.6356   86.0045    8.8965 C.ar    1  UNL1        0.0995
     15 C          60.5701   87.0560    8.9920 C.3     1  UNL1        0.0557
     16 C          62.4164   85.4338   10.0431 C.ar    1  UNL1        0.1101
     17 N          62.3817   85.7097   11.5170 N.ar    1  UNL1       -0.3484
     18 H          61.7554   86.3779   11.8782 H       1  UNL1        0.1661
     19 C          62.6681   82.7558   14.3663 C.ar    1  UNL1        0.0584
     20 C          61.3133   82.1278   14.2237 C.ar    1  UNL1        0.0453
     21 C          61.4993   80.7434   13.6772 C.ar    1  UNL1        0.1798
     22 O          62.9690   80.5156   13.4820 O.2     1  UNL1       -0.4473
     23 C          63.6913   81.7594   13.9080 C.ar    1  UNL1        0.1812
     24 O          63.7959   88.2826   16.4113 O.3     1  UNL1       -0.4728
     25 C          63.1820   89.4724   15.7349 C.3     1  UNL1        0.2211
     26 C          63.9307   90.7709   15.6762 C.3     1  UNL1        0.0995
     27 N          63.5009   91.9238   16.5340 N.3     1  UNL1       -0.3190
     28 H          64.1169   92.7197   16.3674 H       1  UNL1        0.1189
     29 H          63.5519   91.6543   17.5164 H       1  UNL1        0.1189
     30 C          65.1092   90.9163   14.7596 C.3     1  UNL1        0.0472
     31 C          64.9151   91.4322   13.3645 C.2     1  UNL1       -0.0005
     32 C          65.6086   92.6160   12.7578 C.2     1  UNL1        0.0942
     33 N          65.1156   92.7703   11.3496 N.2     1  UNL1       -0.2482
     34 C          64.1174   91.6821   11.0859 C.2     1  UNL1        0.0631
     35 C          63.3053   91.3373    9.8728 C.3     1  UNL1        0.0717
     36 C          62.3694   90.1656    9.9051 C.2     1  UNL1       -0.0198
     37 C          62.2455   89.3387   11.1504 C.2     1  UNL1       -0.0042
     38 C          63.0576   89.6834   12.3635 C.2     1  UNL1        0.0006
     39 C          63.9936   90.8551   12.3313 C.2     1  UNL1        0.0114
@<TRIPOS>BOND
     1     1     2    1
     2     2     3   ar
     3     3     4   ar
     4     4    19    1
     5    19    20   ar
     6    20    21   ar
     7    21    22   ar
     8    22    23   ar
     9     4     5   ar
    10     5     8    1
    11     8     9   ar
    12     9    10   ar
    13    10    11   ar
    14    11    12   ar
    15    12    13   ar
    16    13    14   ar
    17    14    15    1
    18    14    16   ar
    19    16    17   ar
    20     5     6   ar
    21     6     7   ar
    22     7    24    1
    23    24    25    1
    24    25    26    1
    25    26    27    1
    26    26    30    1
    27    30    31    1
    28    31    32    2
    29    32    33    1
    30    33    34    2
    31    34    35    1
    32    35    36    1
    33    36    37    2
    34    37    38    1
    35    38    39    2
    36     7     2   ar
    37    39    31    1
    38    23    19   ar
    39    17     8   ar
    40    39    34    1
    41    16    11    1
    42    17    18    1
    43    27    28    1
    44    27    29    1
@<TRIPOS>MOLECULE
*****
 39 44 0 0 0
SMALL
GASTEIGER

@<TRIPOS>ATOM
      1 C          64.9823   89.6326   15.0226 C.3     1  UNL1        0.0553
      2 C          64.1485   89.0926   13.8987 C.ar    1  UNL1        0.0931
      3 N          63.9524   87.6125   13.7543 N.ar    1  UNL1       -0.2465
      4 C          63.1185   87.0726   12.6304 C.ar    1  UNL1        0.0856
      5 C          62.4807   88.0128   11.6510 C.ar    1  UNL1        0.0379
      6 C          62.6767   89.4929   11.7954 C.ar    1  UNL1        0.0411
      7 C          63.5106   90.0328   12.9193 C.ar    1  UNL1        0.1521
      8 C          61.6467   87.4729   10.5270 C.ar    1  UNL1        0.0777
      9 C          60.1847   87.8000   10.4537 C.ar    1  UNL1        0.1176
     10 N          59.3509   87.2601    9.3298 N.ar    1  UNL1       -0.2209
     11 C          59.9791   86.3931    8.2793 C.ar    1  UNL1        0.2006
     12 N          59.4142   85.7216    7.0626 N.ar    1  UNL1       -0.1272
     13 N          60.5273   84.9796    6.3840 N.ar    1  UNL1       -0.1493
     14 C          61.7799   85.1924    7.1812 C.ar    1  UNL1        0.0995
     15 C          63.1337   84.6303    6.8630 C.3     1  UNL1        0.0557
     16 C          61.4411   86.0660    8.3526 C.ar    1  UNL1        0.1101
     17 N          62.2749   86.6059    9.4765 N.ar    1  UNL1       -0.3484
     18 H          63.2345   86.3912    9.5246 H       1  UNL1        0.1661
     19 C          62.9224   85.5925   12.4859 C.ar    1  UNL1        0.0584
     20 C          62.5479   84.6414   13.5837 C.ar    1  UNL1        0.0453
     21 C          62.4604   83.2647   12.9946 C.ar    1  UNL1        0.1798
     22 O          62.7809   83.3650   11.5326 O.2     1  UNL1       -0.4473
     23 C          63.0664   84.8036   11.2183 C.ar    1  UNL1        0.1812
     24 O          63.7067   91.5129   13.0637 O.3     1  UNL1       -0.4728
     25 C          64.7829   92.2067   12.2824 C.3     1  UNL1        0.2211
     26 C          66.0769   92.5705   12.9481 C.3     1  UNL1        0.0995
     27 N          66.0673   93.2528   14.2839 N.3     1  UNL1       -0.3190
     28 H          67.0267   93.4243   14.5850 H       1  UNL1        0.1189
     29 H          65.5980   92.6576   14.9664 H       1  UNL1        0.1189
     30 C          67.3806   92.2521   12.2779 C.3     1  UNL1        0.0472
     31 C          67.6418   92.7300   10.8802 C.2     1  UNL1       -0.0005
     32 C          68.3545   91.9641    9.8053 C.2     1  UNL1        0.0942
     33 N          68.3893   92.8185    8.5728 N.2     1  UNL1       -0.2482
     34 C          67.6981   94.1123    8.8861 C.2     1  UNL1        0.0631
     35 C          67.4296   95.3333    8.0571 C.3     1  UNL1        0.0717
     36 C          66.6992   96.4995    8.6541 C.2     1  UNL1       -0.0198
     37 C          66.2372   96.4447   10.0801 C.2     1  UNL1       -0.0042
     38 C          66.5056   95.2238   10.9091 C.2     1  UNL1        0.0006
     39 C          67.2361   94.0576   10.3121 C.2     1  UNL1        0.0114
@<TRIPOS>BOND
     1     1     2    1
     2     2     3   ar
     3     3     4   ar
     4     4    19    1
     5    19    20   ar
     6    20    21   ar
     7    21    22   ar
     8    22    23   ar
     9     4     5   ar
    10     5     8    1
    11     8     9   ar
    12     9    10   ar
    13    10    11   ar
    14    11    12   ar
    15    12    13   ar
    16    13    14   ar
    17    14    15    1
    18    14    16   ar
    19    16    17   ar
    20     5     6   ar
    21     6     7   ar
    22     7    24    1
    23    24    25    1
    24    25    26    1
    25    26    27    1
    26    26    30    1
    27    30    31    1
    28    31    32    2
    29    32    33    1
    30    33    34    2
    31    34    35    1
    32    35    36    1
    33    36    37    2
    34    37    38    1
    35    38    39    2
    36     7     2   ar
    37    39    31    1
    38    23    19   ar
    39    17     8   ar
    40    39    34    1
    41    16    11    1
    42    17    18    1
    43    27    28    1
    44    27    29    1
@<TRIPOS>MOLECULE
*****
 39 44 0 0 0
SMALL
GASTEIGER

@<TRIPOS>ATOM
      1 C          60.3961   85.3049    7.7017 C.3     1  UNL1        0.0553
      2 C          61.0107   86.2922    8.6491 C.ar    1  UNL1        0.0931
      3 N          60.1423   87.2794    9.3711 N.ar    1  UNL1       -0.2465
      4 C          60.7569   88.2667   10.3186 C.ar    1  UNL1        0.0856
      5 C          62.2398   88.2667   10.5439 C.ar    1  UNL1        0.0379
      6 C          63.1082   87.2795    9.8219 C.ar    1  UNL1        0.0411
      7 C          62.4937   86.2922    8.8745 C.ar    1  UNL1        0.1521
      8 C          62.8545   89.2540   11.4914 C.ar    1  UNL1        0.0777
      9 C          63.5175   90.4903   10.9604 C.ar    1  UNL1        0.1176
     10 N          64.1321   91.4775   11.9078 N.ar    1  UNL1       -0.2209
     11 C          64.0836   91.2284   13.3862 C.ar    1  UNL1        0.2006
     12 N          64.5994   92.0159   14.5542 N.ar    1  UNL1       -0.1272
     13 N          64.2551   91.2662   15.8069 N.ar    1  UNL1       -0.1493
     14 C          63.5265   90.0155   15.4132 C.ar    1  UNL1        0.0995
     15 C          62.9969   88.9714   16.3510 C.3     1  UNL1        0.0557
     16 C          63.4206   89.9922   13.9172 C.ar    1  UNL1        0.1101
     17 N          62.8060   89.0050   12.9698 N.ar    1  UNL1       -0.3484
     18 H          62.3708   88.1935   13.3182 H       1  UNL1        0.1661
     19 C          59.8885   89.2539   11.0406 C.ar    1  UNL1        0.0584
     20 C          59.7282   90.7049   10.6956 C.ar    1  UNL1        0.0453
     21 C          58.7686   91.3112   11.6762 C.ar    1  UNL1        0.1798
     22 O          58.3357   90.2350   12.6271 O.2     1  UNL1       -0.4473
     23 C          59.0279   88.9635   12.2343 C.ar    1  UNL1        0.1812
     24 O          63.3621   85.3050    8.1525 O.3     1  UNL1       -0.4728
     25 C          63.4146   83.8773    8.6096 C.3     1  UNL1        0.2211
     26 C          63.5986   83.5619   10.0644 C.3     1  UNL1        0.0995
     27 N          64.9588   83.2092   10.5892 N.3     1  UNL1       -0.3190
     28 H          64.8998   83.0262   11.5909 H       1  UNL1        0.1189
     29 H          65.5993   83.9853   10.4224 H       1  UNL1        0.1189
     30 C          62.4223   83.5991   10.9946 C.3     1  UNL1        0.0472
     31 C          62.6053   83.2781   12.4483 C.2     1  UNL1       -0.0005
     32 C          62.2305   81.9908   13.1210 C.2     1  UNL1        0.0942
     33 N          62.5888   82.1052   14.5731 N.2     1  UNL1       -0.2482
     34 C          63.1850   83.4632   14.7979 C.2     1  UNL1        0.0631
     35 C          63.7199   84.1333   16.0287 C.3     1  UNL1        0.0717
     36 C          64.2650   85.5283   15.9462 C.2     1  UNL1       -0.0198
     37 C          64.2752   86.2532   14.6330 C.2     1  UNL1       -0.0042
     38 C          63.7403   85.5830   13.4023 C.2     1  UNL1        0.0006
     39 C          63.1952   84.1880   13.4847 C.2     1  UNL1        0.0114
@<TRIPOS>BOND
     1     1     2    1
     2     2     3   ar
     3     3     4   ar
     4     4    19    1
     5    19    20   ar
     6    20    21   ar
     7    21    22   ar
     8    22    23   ar
     9     4     5   ar
    10     5     8    1
    11     8     9   ar
    12     9    10   ar
    13    10    11   ar
    14    11    12   ar
    15    12    13   ar
    16    13    14   ar
    17    14    15    1
    18    14    16   ar
    19    16    17   ar
    20     5     6   ar
    21     6     7   ar
    22     7    24    1
    23    24    25    1
    24    25    26    1
    25    26    27    1
    26    26    30    1
    27    30    31    1
    28    31    32    2
    29    32    33    1
    30    33    34    2
    31    34    35    1
    32    35    36    1
    33    36    37    2
    34    37    38    1
    35    38    39    2
    36     7     2   ar
    37    39    31    1
    38    23    19   ar
    39    17     8   ar
    40    39    34    1
    41    16    11    1
    42    17    18    1
    43    27    28    1
    44    27    29    1
