@<TRIPOS>MOLECULE
*****
 40 43 0 0 0
SMALL
GASTEIGER

@<TRIPOS>ATOM
      1 N          63.1601   85.5695   14.2949 N.am    1  UNL1       -0.2781
      2 C          64.3010   86.3976   14.8076 C.2     1  UNL1        0.2686
      3 O          65.6623   85.7864   14.9598 O.2     1  UNL1       -0.2681
      4 H          62.2666   85.9707   14.1950 H       1  UNL1        0.1553
      5 C          64.0804   87.8368   15.1681 C.ar    1  UNL1        0.1507
      6 N          64.6604   88.9222   14.3104 N.ar    1  UNL1       -0.2206
      7 C          64.4398   90.3614   14.6709 C.ar    1  UNL1        0.1668
      8 N          63.6393   90.7153   15.8891 N.ar    1  UNL1       -0.2236
      9 C          63.0594   89.6299   16.7468 C.ar    1  UNL1        0.1163
     10 C          63.2799   88.1907   16.3863 C.ar    1  UNL1        0.0834
     11 N          62.7000   87.1053   17.2440 N.pl3   1  UNL1       -0.3545
     12 H          62.1746   87.3375   18.0435 H       1  UNL1        0.1424
     13 H          62.8448   86.1607   17.0074 H       1  UNL1        0.1424
     14 C          65.0197   91.4468   13.8133 C.ar    1  UNL1        0.0906
     15 C          64.5965   91.5769   12.3801 C.ar    1  UNL1        0.1452
     16 F          63.5934   90.6217   11.8046 F       1  UNL1       -0.2040
     17 C          65.1764   92.6623   11.5224 C.ar    1  UNL1        0.0299
     18 C          66.1796   93.6175   12.0979 C.ar    1  UNL1        0.0046
     19 C          66.6028   93.4874   13.5310 C.ar    1  UNL1        0.0299
     20 C          66.0229   92.4020   14.3887 C.ar    1  UNL1        0.1452
     21 F          66.4461   92.2719   15.8219 F       1  UNL1       -0.2040
     22 C          63.0710   83.6484   12.5481 C.ar    1  UNL1       -0.0059
     23 C          63.2915   82.2091   12.1876 C.ar    1  UNL1        0.0176
     24 C          63.8218   81.2518   13.2134 C.ar    1  UNL1        0.0987
     25 N          64.1315   81.7337   14.5998 N.ar    1  UNL1       -0.2410
     26 C          63.9110   83.1729   14.9603 C.ar    1  UNL1        0.1132
     27 C          63.3807   84.1303   13.9344 C.ar    1  UNL1        0.0660
     28 C          62.7826   85.2525    7.6142 C.3     1  UNL1        0.0026
     29 C          62.3965   85.4077    9.0553 C.3     1  UNL1        0.0301
     30 C          62.9268   84.4505   10.0811 C.3     1  UNL1        0.0070
     31 C          62.5407   84.6057   11.5222 C.3     1  UNL1        0.0262
     32 C          61.6243   85.7183   11.9375 C.3     1  UNL1        0.0361
     33 C          61.0941   86.6756   10.9117 C.3     1  UNL1        0.1379
     34 O          60.1777   87.7882   11.3269 O.3     1  UNL1       -0.3820
     35 C          61.4802   86.5203    9.4705 C.3     1  UNL1        0.1453
     36 O          61.5573   86.7832    7.9958 O.3     1  UNL1       -0.3816
     37 H          59.9295   88.3104   10.5480 H       1  UNL1        0.2104
     38 H          61.0149   87.5569    7.7765 H       1  UNL1        0.2105
     39 C          60.5907   87.7242    9.3737 C.3     1  UNL1        0.2221
     40 F          60.0665   88.1639    8.0387 F       1  UNL1       -0.2316
@<TRIPOS>BOND
     1    29    28    1
     2    29    30    1
     3    30    31    1
     4    31    22    1
     5    22    23   ar
     6    23    24   ar
     7    24    25   ar
     8    25    26   ar
     9    26    27   ar
    10    27     1    1
    11     1     2   am
    12     2     3    2
    13     2     5    1
    14     5     6   ar
    15     6     7   ar
    16     7    14    1
    17    14    15   ar
    18    15    16    1
    19    15    17   ar
    20    17    18   ar
    21    18    19   ar
    22    19    20   ar
    23    20    21    1
    24     7     8   ar
    25     8     9   ar
    26     9    10   ar
    27    10    11    1
    28    31    32    1
    29    32    33    1
    30    33    34    1
    31    33    35    1
    32    35    36    1
    33    35    39    1
    34    39    40    1
    35    35    29    1
    36    27    22   ar
    37    10     5   ar
    38    20    14   ar
    39     1     4    1
    40    11    12    1
    41    11    13    1
    42    34    37    1
    43    36    38    1
@<TRIPOS>MOLECULE
*****
 40 43 0 0 0
SMALL
GASTEIGER

@<TRIPOS>ATOM
      1 N          62.3831   88.9990    9.9089 N.am    1  UNL1       -0.2781
      2 C          62.1344   90.1385   10.8523 C.2     1  UNL1        0.2686
      3 O          60.7316   90.5953   11.1232 O.2     1  UNL1       -0.2681
      4 H          63.3038   88.6992    9.7311 H       1  UNL1        0.1553
      5 C          63.2885   90.8210   11.5247 C.ar    1  UNL1        0.1507
      6 N          64.2736   91.6060   10.7102 N.ar    1  UNL1       -0.2206
      7 C          65.4277   92.2885   11.3825 C.ar    1  UNL1        0.1668
      8 N          65.5968   92.1861   12.8694 N.ar    1  UNL1       -0.2236
      9 C          64.6117   91.4012   13.6840 C.ar    1  UNL1        0.1163
     10 C          63.4575   90.7186   13.0117 C.ar    1  UNL1        0.0834
     11 N          62.4725   89.9337   13.8262 N.pl3   1  UNL1       -0.3545
     12 H          62.5834   89.8665   14.8021 H       1  UNL1        0.1424
     13 H          61.7150   89.4857   13.3848 H       1  UNL1        0.1424
     14 C          66.4128   93.0735   10.5680 C.ar    1  UNL1        0.0906
     15 C          66.1120   94.4942   10.1923 C.ar    1  UNL1        0.1452
     16 F          64.8262   95.1299   10.6311 F       1  UNL1       -0.2040
     17 C          67.0971   95.2792    9.3778 C.ar    1  UNL1        0.0299
     18 C          68.3829   94.6434    8.9390 C.ar    1  UNL1        0.0046
     19 C          68.6837   93.2228    9.3147 C.ar    1  UNL1        0.0299
     20 C          67.6986   92.4377   10.1292 C.ar    1  UNL1        0.1452
     21 F          67.9993   91.0171   10.5049 F       1  UNL1       -0.2040
     22 C          61.0112   86.8451    9.4308 C.ar    1  UNL1       -0.0059
     23 C          59.8570   86.1626    8.7584 C.ar    1  UNL1        0.0176
     24 C          58.9207   86.9513    7.8918 C.ar    1  UNL1        0.0987
     25 N          59.1384   88.4227    7.6975 N.ar    1  UNL1       -0.2410
     26 C          60.2926   89.1053    8.3699 C.ar    1  UNL1        0.1132
     27 C          61.2289   88.3164    9.2366 C.ar    1  UNL1        0.0660
     28 C          64.2582   82.8382   10.0642 C.3     1  UNL1        0.0026
     29 C          63.5710   84.0529   10.6141 C.3     1  UNL1        0.0301
     30 C          62.6347   84.8417    9.7475 C.3     1  UNL1        0.0070
     31 C          61.9475   86.0563   10.2975 C.3     1  UNL1        0.0262
     32 C          62.1967   86.4821   11.7140 C.3     1  UNL1        0.0361
     33 C          63.1330   85.6933   12.5806 C.3     1  UNL1        0.1379
     34 O          63.3822   86.1191   13.9972 O.3     1  UNL1       -0.3820
     35 C          63.8202   84.4787   12.0306 C.3     1  UNL1        0.1453
     36 O          64.7000   83.2656   11.9648 O.3     1  UNL1       -0.3816
     37 H          64.0074   85.5057   14.4140 H       1  UNL1        0.2104
     38 H          65.1385   83.1374   12.8205 H       1  UNL1        0.2105
     39 C          64.3749   84.4832   13.4243 C.3     1  UNL1        0.2221
     40 F          64.6112   83.1872   14.1417 F       1  UNL1       -0.2316
@<TRIPOS>BOND
     1    29    28    1
     2    29    30    1
     3    30    31    1
     4    31    22    1
     5    22    23   ar
     6    23    24   ar
     7    24    25   ar
     8    25    26   ar
     9    26    27   ar
    10    27     1    1
    11     1     2   am
    12     2     3    2
    13     2     5    1
    14     5     6   ar
    15     6     7   ar
    16     7    14    1
    17    14    15   ar
    18    15    16    1
    19    15    17   ar
    20    17    18   ar
    21    18    19   ar
    22    19    20   ar
    23    20    21    1
    24     7     8   ar
    25     8     9   ar
    26     9    10   ar
    27    10    11    1
    28    31    32    1
    29    32    33    1
    30    33    34    1
    31    33    35    1
    32    35    36    1
    33    35    39    1
    34    39    40    1
    35    35    29    1
    36    27    22   ar
    37    10     5   ar
    38    20    14   ar
    39     1     4    1
    40    11    12    1
    41    11    13    1
    42    34    37    1
    43    36    38    1
@<TRIPOS>MOLECULE
*****
 40 43 0 0 0
SMALL
GASTEIGER

@<TRIPOS>ATOM
      1 N          63.4079   86.4295   13.1881 N.am    1  UNL1       -0.2781
      2 C          64.0981   86.7752   14.4743 C.2     1  UNL1        0.2686
      3 O          64.8798   85.7281   15.2108 O.2     1  UNL1       -0.2681
      4 H          62.8948   87.1167   12.7046 H       1  UNL1        0.1553
      5 C          64.0066   88.1679   15.0238 C.ar    1  UNL1        0.1507
      6 N          64.6491   89.3074   14.2899 N.ar    1  UNL1       -0.2206
      7 C          64.5576   90.7001   14.8395 C.ar    1  UNL1        0.1668
      8 N          63.8236   90.9533   16.1228 N.ar    1  UNL1       -0.2236
      9 C          63.1810   89.8137   16.8568 C.ar    1  UNL1        0.1163
     10 C          63.2725   88.4210   16.3072 C.ar    1  UNL1        0.0834
     11 N          62.6301   87.2814   17.0411 N.pl3   1  UNL1       -0.3545
     12 H          62.1483   87.4476   17.8834 H       1  UNL1        0.1424
     13 H          62.6901   86.3673   16.6804 H       1  UNL1        0.1424
     14 C          65.2001   91.8397   14.1056 C.ar    1  UNL1        0.0906
     15 C          64.9770   92.0033   12.6313 C.ar    1  UNL1        0.1452
     16 F          64.1114   91.0273   11.8909 F       1  UNL1       -0.2040
     17 C          65.6195   93.1428   11.8975 C.ar    1  UNL1        0.0299
     18 C          66.4850   94.1188   12.6379 C.ar    1  UNL1        0.0046
     19 C          66.7081   93.9553   14.1121 C.ar    1  UNL1        0.0299
     20 C          66.0656   92.8157   14.8460 C.ar    1  UNL1        0.1452
     21 F          66.2887   92.6521   16.3203 F       1  UNL1       -0.2040
     22 C          62.8590   84.7060   11.3231 C.ar    1  UNL1       -0.0059
     23 C          62.9505   83.3133   10.7736 C.ar    1  UNL1        0.0176
     24 C          63.6824   82.2514   11.5395 C.ar    1  UNL1        0.0987
     25 N          64.3229   82.5822   12.8550 N.ar    1  UNL1       -0.2410
     26 C          64.2314   83.9749   13.4045 C.ar    1  UNL1        0.1132
     27 C          63.4994   85.0368   12.6385 C.ar    1  UNL1        0.0660
     28 C          61.8315   89.7240   10.4492 C.3     1  UNL1        0.0026
     29 C          61.6133   88.2769   10.1202 C.3     1  UNL1        0.0301
     30 C          62.3452   87.2150   10.8861 C.3     1  UNL1        0.0070
     31 C          62.1270   85.7679   10.5572 C.3     1  UNL1        0.0262
     32 C          61.1768   85.3826    9.4623 C.3     1  UNL1        0.0361
     33 C          60.4449   86.4445    8.6964 C.3     1  UNL1        0.1379
     34 O          59.4946   86.0593    7.6015 O.3     1  UNL1       -0.3820
     35 C          60.6631   87.8917    9.0254 C.3     1  UNL1        0.1453
     36 O          60.5360   89.3851    8.9670 O.3     1  UNL1       -0.3816
     37 H          59.1090   86.8595    7.2117 H       1  UNL1        0.2104
     38 H          59.9066   89.6290    8.2703 H       1  UNL1        0.2105
     39 C          59.6688   88.0251    7.9103 C.3     1  UNL1        0.2221
     40 F          59.6819   89.2436    7.0355 F       1  UNL1       -0.2316
@<TRIPOS>BOND
     1    29    28    1
     2    29    30    1
     3    30    31    1
     4    31    22    1
     5    22    23   ar
     6    23    24   ar
     7    24    25   ar
     8    25    26   ar
     9    26    27   ar
    10    27     1    1
    11     1     2   am
    12     2     3    2
    13     2     5    1
    14     5     6   ar
    15     6     7   ar
    16     7    14    1
    17    14    15   ar
    18    15    16    1
    19    15    17   ar
    20    17    18   ar
    21    18    19   ar
    22    19    20   ar
    23    20    21    1
    24     7     8   ar
    25     8     9   ar
    26     9    10   ar
    27    10    11    1
    28    31    32    1
    29    32    33    1
    30    33    34    1
    31    33    35    1
    32    35    36    1
    33    35    39    1
    34    39    40    1
    35    35    29    1
    36    27    22   ar
    37    10     5   ar
    38    20    14   ar
    39     1     4    1
    40    11    12    1
    41    11    13    1
    42    34    37    1
    43    36    38    1
@<TRIPOS>MOLECULE
*****
 40 43 0 0 0
SMALL
GASTEIGER

@<TRIPOS>ATOM
      1 N          64.0916   86.7645   13.3415 N.am    1  UNL1       -0.2781
      2 C          63.8926   87.8628   14.3436 C.2     1  UNL1        0.2686
      3 O          63.3934   87.5401   15.7208 O.2     1  UNL1       -0.2681
      4 H          64.4192   86.9763   12.4376 H       1  UNL1        0.1553
      5 C          64.1927   89.2838   13.9685 C.ar    1  UNL1        0.1507
      6 N          65.4195   89.9585   14.5068 N.ar    1  UNL1       -0.2206
      7 C          65.7196   91.3795   14.1316 C.ar    1  UNL1        0.1668
      8 N          64.7930   92.1258   13.2182 N.ar    1  UNL1       -0.2236
      9 C          63.5662   91.4510   12.6798 C.ar    1  UNL1        0.1163
     10 C          63.2660   90.0301   13.0549 C.ar    1  UNL1        0.0834
     11 N          62.0393   89.3554   12.5166 N.pl3   1  UNL1       -0.3545
     12 H          61.4311   89.8452   11.9171 H       1  UNL1        0.1424
     13 H          61.8423   88.4227   12.7629 H       1  UNL1        0.1424
     14 C          66.9463   92.0542   14.6699 C.ar    1  UNL1        0.0906
     15 C          66.8956   92.7576   15.9939 C.ar    1  UNL1        0.1452
     16 F          65.6181   92.7862   16.7795 F       1  UNL1       -0.2040
     17 C          68.1223   93.4323   16.5322 C.ar    1  UNL1        0.0299
     18 C          69.3999   93.4037   15.7466 C.ar    1  UNL1        0.0046
     19 C          69.4507   92.7003   14.4228 C.ar    1  UNL1        0.0299
     20 C          68.2239   92.0256   13.8844 C.ar    1  UNL1        0.1452
     21 F          68.2747   91.3222   12.5605 F       1  UNL1       -0.2040
     22 C          62.9419   84.4942   12.8185 C.ar    1  UNL1       -0.0059
     23 C          62.6417   83.0732   13.1936 C.ar    1  UNL1        0.0176
     24 C          63.1912   82.5016   14.4669 C.ar    1  UNL1        0.0987
     25 N          64.0409   83.3509   15.3651 N.ar    1  UNL1       -0.2410
     26 C          64.3410   84.7719   14.9899 C.ar    1  UNL1        0.1132
     27 C          63.7915   85.3435   13.7166 C.ar    1  UNL1        0.0660
     28 C          62.9317   84.7302    7.6277 C.3     1  UNL1        0.0026
     29 C          62.3873   85.1838    8.9497 C.3     1  UNL1        0.0301
     30 C          62.9368   84.6122   10.2230 C.3     1  UNL1        0.0070
     31 C          62.3923   85.0658   11.5451 C.3     1  UNL1        0.0262
     32 C          61.2984   86.0909   11.5939 C.3     1  UNL1        0.0361
     33 C          60.7490   86.6625   10.3206 C.3     1  UNL1        0.1379
     34 O          59.6550   87.6877   10.3693 O.3     1  UNL1       -0.3820
     35 C          61.2934   86.2089    8.9985 C.3     1  UNL1        0.1453
     36 O          61.4804   86.0980    7.5143 O.3     1  UNL1       -0.3816
     37 H          59.4174   87.9502    9.4662 H       1  UNL1        0.2104
     38 H          60.8636   86.6969    7.0651 H       1  UNL1        0.2105
     39 C          60.2644   87.1955    8.5318 C.3     1  UNL1        0.2221
     40 F          59.2763   86.8045    7.4732 F       1  UNL1       -0.2316
@<TRIPOS>BOND
     1    29    28    1
     2    29    30    1
     3    30    31    1
     4    31    22    1
     5    22    23   ar
     6    23    24   ar
     7    24    25   ar
     8    25    26   ar
     9    26    27   ar
    10    27     1    1
    11     1     2   am
    12     2     3    2
    13     2     5    1
    14     5     6   ar
    15     6     7   ar
    16     7    14    1
    17    14    15   ar
    18    15    16    1
    19    15    17   ar
    20    17    18   ar
    21    18    19   ar
    22    19    20   ar
    23    20    21    1
    24     7     8   ar
    25     8     9   ar
    26     9    10   ar
    27    10    11    1
    28    31    32    1
    29    32    33    1
    30    33    34    1
    31    33    35    1
    32    35    36    1
    33    35    39    1
    34    39    40    1
    35    35    29    1
    36    27    22   ar
    37    10     5   ar
    38    20    14   ar
    39     1     4    1
    40    11    12    1
    41    11    13    1
    42    34    37    1
    43    36    38    1
@<TRIPOS>MOLECULE
*****
 40 43 0 0 0
SMALL
GASTEIGER

@<TRIPOS>ATOM
      1 N          62.3547   88.9818    9.8760 N.am    1  UNL1       -0.2781
      2 C          62.1149   90.1167   10.8271 C.2     1  UNL1        0.2686
      3 O          60.7155   90.5810   11.1031 O.2     1  UNL1       -0.2681
      4 H          63.2731   88.6770    9.6948 H       1  UNL1        0.1553
      5 C          63.2745   90.7873   11.5021 C.ar    1  UNL1        0.1507
      6 N          64.2563   91.5817   10.6928 N.ar    1  UNL1       -0.2206
      7 C          65.4158   92.2524   11.3678 C.ar    1  UNL1        0.1668
      8 N          65.5936   92.1286   12.8521 N.ar    1  UNL1       -0.2236
      9 C          64.6118   91.3342   13.6614 C.ar    1  UNL1        0.1163
     10 C          63.4522   90.6635   12.9864 C.ar    1  UNL1        0.0834
     11 N          62.4704   89.8691   13.7957 N.pl3   1  UNL1       -0.3545
     12 H          62.5871   89.7879   14.7698 H       1  UNL1        0.1424
     13 H          61.7093   89.4290   13.3526 H       1  UNL1        0.1424
     14 C          66.3977   93.0468   10.5586 C.ar    1  UNL1        0.0906
     15 C          67.6895   92.4217   10.1221 C.ar    1  UNL1        0.1452
     16 F          67.9995   91.0022   10.4949 F       1  UNL1       -0.2040
     17 C          68.6713   93.2161    9.3128 C.ar    1  UNL1        0.0299
     18 C          68.3614   94.6356    8.9400 C.ar    1  UNL1        0.0046
     19 C          67.0696   95.2607    9.3765 C.ar    1  UNL1        0.0299
     20 C          66.0877   94.4663   10.1858 C.ar    1  UNL1        0.1452
     21 F          64.7959   95.0913   10.6222 F       1  UNL1       -0.2040
     22 C          60.9855   86.8346    9.3614 C.ar    1  UNL1       -0.0059
     23 C          59.8260   86.1639    8.6864 C.ar    1  UNL1        0.0176
     24 C          58.8759   86.9699    7.8510 C.ar    1  UNL1        0.0987
     25 N          59.0855   88.4465    7.6906 N.ar    1  UNL1       -0.2410
     26 C          60.2450   89.1172    8.3656 C.ar    1  UNL1        0.1132
     27 C          61.1951   88.3111    9.2010 C.ar    1  UNL1        0.0660
     28 C          63.4689   86.0466   13.8572 C.3     1  UNL1        0.0026
     29 C          63.1773   85.6346   12.4446 C.3     1  UNL1        0.0301
     30 C          62.2273   86.4405   11.6093 C.3     1  UNL1        0.0070
     31 C          61.9356   86.0285   10.1968 C.3     1  UNL1        0.0262
     32 C          62.5939   84.8106    9.6196 C.3     1  UNL1        0.0361
     33 C          63.5439   84.0046   10.4550 C.3     1  UNL1        0.1379
     34 O          64.2023   82.7866    9.8779 O.3     1  UNL1       -0.3820
     35 C          63.8356   84.4166   11.8675 C.3     1  UNL1        0.1453
     36 O          64.4273   84.4040   13.2458 O.3     1  UNL1       -0.3816
     37 H          64.7813   82.3854   10.5447 H       1  UNL1        0.2104
     38 H          65.0260   83.6459   13.3337 H       1  UNL1        0.2105
     39 C          64.6994   83.1943   11.7690 C.3     1  UNL1        0.2221
     40 F          64.6491   82.1516   12.8463 F       1  UNL1       -0.2316
@<TRIPOS>BOND
     1    29    28    1
     2    29    30    1
     3    30    31    1
     4    31    22    1
     5    22    23   ar
     6    23    24   ar
     7    24    25   ar
     8    25    26   ar
     9    26    27   ar
    10    27     1    1
    11     1     2   am
    12     2     3    2
    13     2     5    1
    14     5     6   ar
    15     6     7   ar
    16     7    14    1
    17    14    15   ar
    18    15    16    1
    19    15    17   ar
    20    17    18   ar
    21    18    19   ar
    22    19    20   ar
    23    20    21    1
    24     7     8   ar
    25     8     9   ar
    26     9    10   ar
    27    10    11    1
    28    31    32    1
    29    32    33    1
    30    33    34    1
    31    33    35    1
    32    35    36    1
    33    35    39    1
    34    39    40    1
    35    35    29    1
    36    27    22   ar
    37    10     5   ar
    38    20    14   ar
    39     1     4    1
    40    11    12    1
    41    11    13    1
    42    34    37    1
    43    36    38    1
@<TRIPOS>MOLECULE
*****
 40 43 0 0 0
SMALL
GASTEIGER

@<TRIPOS>ATOM
      1 N          64.0377   86.7458   13.4495 N.am    1  UNL1       -0.2781
      2 C          63.8500   87.8745   14.4195 C.2     1  UNL1        0.2686
      3 O          63.3440   87.5972   15.8041 O.2     1  UNL1       -0.2681
      4 H          64.3699   86.9278   12.5408 H       1  UNL1        0.1553
      5 C          64.1683   89.2805   14.0049 C.ar    1  UNL1        0.1507
      6 N          65.3935   89.9609   14.5396 N.ar    1  UNL1       -0.2206
      7 C          65.7118   91.3669   14.1250 C.ar    1  UNL1        0.1668
      8 N          64.8050   92.0924   13.1757 N.ar    1  UNL1       -0.2236
      9 C          63.5797   91.4120   12.6410 C.ar    1  UNL1        0.1163
     10 C          63.2614   90.0060   13.0556 C.ar    1  UNL1        0.0834
     11 N          62.0362   89.3256   12.5210 N.pl3   1  UNL1       -0.3545
     12 H          61.4410   89.8018   11.8979 H       1  UNL1        0.1424
     13 H          61.8273   88.4028   12.7931 H       1  UNL1        0.1424
     14 C          66.9370   92.0473   14.6596 C.ar    1  UNL1        0.0906
     15 C          68.2098   92.0324   13.8660 C.ar    1  UNL1        0.1452
     16 F          68.2574   91.3371   12.5378 F       1  UNL1       -0.2040
     17 C          69.4350   92.7129   14.4007 C.ar    1  UNL1        0.0299
     18 C          69.3874   93.4082   15.7289 C.ar    1  UNL1        0.0046
     19 C          68.1147   93.4231   16.5225 C.ar    1  UNL1        0.0299
     20 C          66.8894   92.7427   15.9879 C.ar    1  UNL1        0.1452
     21 F          65.6167   92.7576   16.7815 F       1  UNL1       -0.2040
     22 C          62.9413   84.4450   12.9456 C.ar    1  UNL1       -0.0059
     23 C          62.6230   83.0390   13.3602 C.ar    1  UNL1        0.0176
     24 C          63.0828   82.5279   14.6933 C.ar    1  UNL1        0.0987
     25 N          63.8609   83.4227   15.6120 N.ar    1  UNL1       -0.2410
     26 C          64.1792   84.8287   15.1974 C.ar    1  UNL1        0.1132
     27 C          63.7194   85.3398   13.8641 C.ar    1  UNL1        0.0660
     28 C          59.9508   87.6330   10.1361 C.3     1  UNL1        0.0026
     29 C          60.9863   86.5501   10.2076 C.3     1  UNL1        0.0301
     30 C          61.4461   86.0390   11.5408 C.3     1  UNL1        0.0070
     31 C          62.4815   84.9561   11.6123 C.3     1  UNL1        0.0262
     32 C          63.0572   84.3842   10.3508 C.3     1  UNL1        0.0361
     33 C          62.5974   84.8953    9.0176 C.3     1  UNL1        0.1379
     34 O          63.1730   84.3235    7.7560 O.3     1  UNL1       -0.3820
     35 C          61.5619   85.9783    8.9461 C.3     1  UNL1        0.1453
     36 O          60.6118   86.9838    8.3664 O.3     1  UNL1       -0.3816
     37 H          62.7708   84.7614    6.9896 H       1  UNL1        0.2104
     38 H          60.6613   86.9547    7.3981 H       1  UNL1        0.2105
     39 C          61.8076   85.7557    7.4832 C.3     1  UNL1        0.2221
     40 F          60.7323   85.1587    6.6244 F       1  UNL1       -0.2316
@<TRIPOS>BOND
     1    29    28    1
     2    29    30    1
     3    30    31    1
     4    31    22    1
     5    22    23   ar
     6    23    24   ar
     7    24    25   ar
     8    25    26   ar
     9    26    27   ar
    10    27     1    1
    11     1     2   am
    12     2     3    2
    13     2     5    1
    14     5     6   ar
    15     6     7   ar
    16     7    14    1
    17    14    15   ar
    18    15    16    1
    19    15    17   ar
    20    17    18   ar
    21    18    19   ar
    22    19    20   ar
    23    20    21    1
    24     7     8   ar
    25     8     9   ar
    26     9    10   ar
    27    10    11    1
    28    31    32    1
    29    32    33    1
    30    33    34    1
    31    33    35    1
    32    35    36    1
    33    35    39    1
    34    39    40    1
    35    35    29    1
    36    27    22   ar
    37    10     5   ar
    38    20    14   ar
    39     1     4    1
    40    11    12    1
    41    11    13    1
    42    34    37    1
    43    36    38    1
@<TRIPOS>MOLECULE
*****
 40 43 0 0 0
SMALL
GASTEIGER

@<TRIPOS>ATOM
      1 N          64.5993   90.7924   12.9298 N.am    1  UNL1       -0.2781
      2 C          63.3780   89.9601   13.1867 C.2     1  UNL1        0.2686
      3 O          62.7621   89.9342   14.5541 O.2     1  UNL1       -0.2681
      4 H          65.0035   90.8094   12.0323 H       1  UNL1        0.1553
      5 C          62.7727   89.1538   12.0761 C.ar    1  UNL1        0.1507
      6 N          63.0633   87.6861   11.9703 N.ar    1  UNL1       -0.2206
      7 C          62.4580   86.8798   10.8597 C.ar    1  UNL1        0.1668
      8 N          61.5621   87.5412    9.8548 N.ar    1  UNL1       -0.2236
      9 C          61.2714   89.0090    9.9606 C.ar    1  UNL1        0.1163
     10 C          61.8767   89.8153   11.0712 C.ar    1  UNL1        0.0834
     11 N          61.5861   91.2831   11.1770 N.pl3   1  UNL1       -0.3545
     12 H          60.9980   91.7172   10.5175 H       1  UNL1        0.1424
     13 H          61.9833   91.8122   11.9059 H       1  UNL1        0.1424
     14 C          62.7486   85.4120   10.7539 C.ar    1  UNL1        0.0906
     15 C          63.2501   84.8379    9.4620 C.ar    1  UNL1        0.1452
     16 F          63.4609   85.7316    8.2759 F       1  UNL1       -0.2040
     17 C          63.5407   83.3702    9.3562 C.ar    1  UNL1        0.0299
     18 C          63.3299   82.4765   10.5423 C.ar    1  UNL1        0.0046
     19 C          62.8285   83.0505   11.8342 C.ar    1  UNL1        0.0299
     20 C          62.5378   84.5183   11.9400 C.ar    1  UNL1        0.1452
     21 F          62.0364   85.0924   13.2319 F       1  UNL1       -0.2040
     22 C          66.1278   92.7375   13.7234 C.ar    1  UNL1       -0.0059
     23 C          66.7331   93.5438   14.8340 C.ar    1  UNL1        0.0176
     24 C          66.4152   93.2113   16.2616 C.ar    1  UNL1        0.0987
     25 N          65.4919   92.0724   16.5788 N.ar    1  UNL1       -0.2410
     26 C          64.8866   91.2661   15.4682 C.ar    1  UNL1        0.1132
     27 C          65.2046   91.5987   14.0404 C.ar    1  UNL1        0.0660
     28 C          68.6052   91.6360    9.2906 C.3     1  UNL1        0.0026
     29 C          67.6845   92.5194   10.0793 C.3     1  UNL1        0.0301
     30 C          67.3665   92.1868   11.5069 C.3     1  UNL1        0.0070
     31 C          66.4458   93.0701   12.2956 C.3     1  UNL1        0.0262
     32 C          65.8431   94.2860   11.6567 C.3     1  UNL1        0.0361
     33 C          66.1611   94.6186   10.2290 C.3     1  UNL1        0.1379
     34 O          65.5584   95.8345    9.5900 O.3     1  UNL1       -0.3820
     35 C          67.0818   93.7352    9.4403 C.3     1  UNL1        0.1453
     36 O          67.8907   93.2110    8.2911 O.3     1  UNL1       -0.3816
     37 H          65.8645   95.9027    8.6721 H       1  UNL1        0.2104
     38 H          67.7789   93.7944    7.5242 H       1  UNL1        0.2105
     39 C          66.7600   94.7691    8.4022 C.3     1  UNL1        0.2221
     40 F          67.8428   95.6613    7.8715 F       1  UNL1       -0.2316
@<TRIPOS>BOND
     1    29    28    1
     2    29    30    1
     3    30    31    1
     4    31    22    1
     5    22    23   ar
     6    23    24   ar
     7    24    25   ar
     8    25    26   ar
     9    26    27   ar
    10    27     1    1
    11     1     2   am
    12     2     3    2
    13     2     5    1
    14     5     6   ar
    15     6     7   ar
    16     7    14    1
    17    14    15   ar
    18    15    16    1
    19    15    17   ar
    20    17    18   ar
    21    18    19   ar
    22    19    20   ar
    23    20    21    1
    24     7     8   ar
    25     8     9   ar
    26     9    10   ar
    27    10    11    1
    28    31    32    1
    29    32    33    1
    30    33    34    1
    31    33    35    1
    32    35    36    1
    33    35    39    1
    34    39    40    1
    35    35    29    1
    36    27    22   ar
    37    10     5   ar
    38    20    14   ar
    39     1     4    1
    40    11    12    1
    41    11    13    1
    42    34    37    1
    43    36    38    1
@<TRIPOS>MOLECULE
*****
 40 43 0 0 0
SMALL
GASTEIGER

@<TRIPOS>ATOM
      1 N          62.9182   87.2998   12.3986 N.am    1  UNL1       -0.2781
      2 C          63.6774   86.8511   13.6121 C.2     1  UNL1        0.2686
      3 O          64.5379   87.8251   14.3610 O.2     1  UNL1       -0.2681
      4 H          62.3535   86.6605   11.9071 H       1  UNL1        0.1553
      5 C          63.5761   85.4284   14.0766 C.ar    1  UNL1        0.1507
      6 N          63.4310   84.3211   13.0752 N.ar    1  UNL1       -0.2206
      7 C          63.3297   82.8984   13.5397 C.ar    1  UNL1        0.1668
      8 N          63.3734   82.5831   15.0055 N.ar    1  UNL1       -0.2236
      9 C          63.5184   83.6904   16.0069 C.ar    1  UNL1        0.1163
     10 C          63.6198   85.1131   15.5425 C.ar    1  UNL1        0.0834
     11 N          63.7648   86.2204   16.5438 N.pl3   1  UNL1       -0.3545
     12 H          63.7935   86.0135   17.5059 H       1  UNL1        0.1424
     13 H          63.8313   87.1542   16.2389 H       1  UNL1        0.1424
     14 C          63.1847   81.7911   12.5384 C.ar    1  UNL1        0.0906
     15 C          63.6120   82.0049   11.1164 C.ar    1  UNL1        0.1452
     16 F          64.1844   83.3261   10.6960 F       1  UNL1       -0.2040
     17 C          63.4670   80.8976   10.1151 C.ar    1  UNL1        0.0299
     18 C          62.8946   79.5764   10.5356 C.ar    1  UNL1        0.0046
     19 C          62.4673   79.3625   11.9574 C.ar    1  UNL1        0.0299
     20 C          62.6123   80.4698   12.9588 C.ar    1  UNL1        0.1452
     21 F          62.1850   80.2560   14.3806 F       1  UNL1       -0.2040
     22 C          62.5623   89.0956   10.5552 C.ar    1  UNL1       -0.0059
     23 C          62.6636   90.5183   10.0908 C.ar    1  UNL1        0.0176
     24 C          63.2222   91.5678   11.0053 C.ar    1  UNL1        0.0987
     25 N          63.6795   91.1947   12.3843 N.ar    1  UNL1       -0.2410
     26 C          63.5782   89.7720   12.8488 C.ar    1  UNL1        0.1132
     27 C          63.0196   88.7224   11.9342 C.ar    1  UNL1        0.0660
     28 C          58.6424   87.2507    7.6862 C.3     1  UNL1        0.0026
     29 C          60.0437   87.1236    8.2061 C.3     1  UNL1        0.0301
     30 C          60.6024   88.1731    9.1207 C.3     1  UNL1        0.0070
     31 C          62.0036   88.0460    9.6406 C.3     1  UNL1        0.0262
     32 C          62.8462   86.8695    9.2460 C.3     1  UNL1        0.0361
     33 C          62.2875   85.8200    8.3315 C.3     1  UNL1        0.1379
     34 O          63.1301   84.6434    7.9368 O.3     1  UNL1       -0.3820
     35 C          60.8863   85.9471    7.8115 C.3     1  UNL1        0.1453
     36 O          59.6256   85.6268    7.0644 O.3     1  UNL1       -0.3816
     37 H          62.6219   84.0651    7.3468 H       1  UNL1        0.2104
     38 H          59.7401   84.7950    6.5787 H       1  UNL1        0.2105
     39 C          61.2911   84.6593    7.1574 C.3     1  UNL1        0.2221
     40 F          61.1708   84.5032    5.6704 F       1  UNL1       -0.2316
@<TRIPOS>BOND
     1    29    28    1
     2    29    30    1
     3    30    31    1
     4    31    22    1
     5    22    23   ar
     6    23    24   ar
     7    24    25   ar
     8    25    26   ar
     9    26    27   ar
    10    27     1    1
    11     1     2   am
    12     2     3    2
    13     2     5    1
    14     5     6   ar
    15     6     7   ar
    16     7    14    1
    17    14    15   ar
    18    15    16    1
    19    15    17   ar
    20    17    18   ar
    21    18    19   ar
    22    19    20   ar
    23    20    21    1
    24     7     8   ar
    25     8     9   ar
    26     9    10   ar
    27    10    11    1
    28    31    32    1
    29    32    33    1
    30    33    34    1
    31    33    35    1
    32    35    36    1
    33    35    39    1
    34    39    40    1
    35    35    29    1
    36    27    22   ar
    37    10     5   ar
    38    20    14   ar
    39     1     4    1
    40    11    12    1
    41    11    13    1
    42    34    37    1
    43    36    38    1
@<TRIPOS>MOLECULE
*****
 40 43 0 0 0
SMALL
GASTEIGER

@<TRIPOS>ATOM
      1 N          63.0797   87.9711   12.8200 N.am    1  UNL1       -0.2781
      2 C          63.8268   87.3377   13.9561 C.2     1  UNL1        0.2686
      3 O          64.9017   88.1049   14.6672 O.2     1  UNL1       -0.2681
      4 H          62.3741   87.4676   12.3533 H       1  UNL1        0.1553
      5 C          63.4988   85.9370   14.3811 C.ar    1  UNL1        0.1507
      6 N          63.4622   84.8342   13.3651 N.ar    1  UNL1       -0.2206
      7 C          63.1342   83.4335   13.7900 C.ar    1  UNL1        0.1668
      8 N          62.8428   83.1357   15.2310 N.ar    1  UNL1       -0.2236
      9 C          62.8794   84.2386   16.2471 C.ar    1  UNL1        0.1163
     10 C          63.2074   85.6393   15.8221 C.ar    1  UNL1        0.0834
     11 N          63.2439   86.7421   16.8381 N.pl3   1  UNL1       -0.3545
     12 H          63.0526   86.5467   17.7839 H       1  UNL1        0.1424
     13 H          63.4592   87.6614   16.5592 H       1  UNL1        0.1424
     14 C          63.0977   82.3306   12.7740 C.ar    1  UNL1        0.0906
     15 C          62.5152   80.9965   13.1359 C.ar    1  UNL1        0.1452
     16 F          61.9693   80.7653   14.5138 F       1  UNL1       -0.2040
     17 C          62.4787   79.8936   12.1199 C.ar    1  UNL1        0.0299
     18 C          63.0245   80.1248   10.7420 C.ar    1  UNL1        0.0046
     19 C          63.6070   81.4588   10.3801 C.ar    1  UNL1        0.0299
     20 C          63.6436   82.5618   11.3962 C.ar    1  UNL1        0.1452
     21 F          64.2260   83.8958   11.0343 F       1  UNL1       -0.2040
     22 C          62.9809   89.8651   11.0443 C.ar    1  UNL1       -0.0059
     23 C          63.3089   91.2658   10.6194 C.ar    1  UNL1        0.0176
     24 C          64.0636   92.1731   11.5452 C.ar    1  UNL1        0.0987
     25 N          64.4904   91.6798   12.8960 N.ar    1  UNL1       -0.2410
     26 C          64.1624   90.2791   13.3209 C.ar    1  UNL1        0.1132
     27 C          63.4077   89.3718   12.3950 C.ar    1  UNL1        0.0660
     28 C          62.4631   85.2651    8.6838 C.3     1  UNL1        0.0026
     29 C          61.9673   86.6578    8.9382 C.3     1  UNL1        0.0301
     30 C          62.7220   87.5651    9.8640 C.3     1  UNL1        0.0070
     31 C          62.2262   88.9577   10.1185 C.3     1  UNL1        0.0262
     32 C          60.9757   89.4430    9.4471 C.3     1  UNL1        0.0361
     33 C          60.2210   88.5357    8.5213 C.3     1  UNL1        0.1379
     34 O          58.9704   89.0210    7.8500 O.3     1  UNL1       -0.3820
     35 C          60.7168   87.1431    8.2669 C.3     1  UNL1        0.1453
     36 O          60.7867   85.7511    7.7123 O.3     1  UNL1       -0.3816
     37 H          58.6098   88.3160    7.2898 H       1  UNL1        0.2104
     38 H          60.0351   85.6019    7.1176 H       1  UNL1        0.2105
     39 C          59.4906   87.1449    7.4030 C.3     1  UNL1        0.2221
     40 F          58.3186   86.2805    7.7625 F       1  UNL1       -0.2316
@<TRIPOS>BOND
     1    29    28    1
     2    29    30    1
     3    30    31    1
     4    31    22    1
     5    22    23   ar
     6    23    24   ar
     7    24    25   ar
     8    25    26   ar
     9    26    27   ar
    10    27     1    1
    11     1     2   am
    12     2     3    2
    13     2     5    1
    14     5     6   ar
    15     6     7   ar
    16     7    14    1
    17    14    15   ar
    18    15    16    1
    19    15    17   ar
    20    17    18   ar
    21    18    19   ar
    22    19    20   ar
    23    20    21    1
    24     7     8   ar
    25     8     9   ar
    26     9    10   ar
    27    10    11    1
    28    31    32    1
    29    32    33    1
    30    33    34    1
    31    33    35    1
    32    35    36    1
    33    35    39    1
    34    39    40    1
    35    35    29    1
    36    27    22   ar
    37    10     5   ar
    38    20    14   ar
    39     1     4    1
    40    11    12    1
    41    11    13    1
    42    34    37    1
    43    36    38    1
