@<TRIPOS>MOLECULE
*****
 44 48 0 0 0
SMALL
GASTEIGER

@<TRIPOS>ATOM
      1 N          61.3502   86.7855   11.0878 N.ar    1  UNL1       -0.3260
      2 C          62.0962   85.6733   11.7634 C.ar    1  UNL1        0.0433
      3 C          63.1065   86.2869   12.6869 C.ar    1  UNL1        0.0383
      4 C          62.9850   87.7782   12.5820 C.ar    1  UNL1        0.0256
      5 C          63.7225   88.8954   13.2587 C.ar    1  UNL1        0.0389
      6 C          63.3745   90.3208   12.9471 C.ar    1  UNL1        0.1392
      7 C          62.2890   90.6290   11.9588 C.ar    1  UNL1        0.0384
      8 C          61.5515   89.5118   11.2821 C.ar    1  UNL1        0.0203
      9 C          61.8995   88.0865   11.5937 C.ar    1  UNL1        0.0606
     10 C          60.2484   86.6251   10.0827 C.3     1  UNL1        0.1324
     11 C          59.8108   89.5946    6.7301 C.ar    1  UNL1        0.0015
     12 C          59.3876   88.1696    6.5298 C.ar    1  UNL1       -0.0002
     13 C          59.5335   87.1797    7.6473 C.ar    1  UNL1       -0.0024
     14 C          60.1025   87.6148    8.9652 C.ar    1  UNL1        0.0004
     15 C          60.5257   89.0400    9.1655 C.ar    1  UNL1       -0.0024
     16 C          60.3799   90.0299    8.0480 C.ar    1  UNL1       -0.0002
     17 C          59.3733   92.5643    3.3775 C.ar    1  UNL1        0.2250
     18 C          60.7272   92.0202    3.7255 C.ar    1  UNL1        0.0577
     19 C          60.8730   91.0303    4.8430 C.ar    1  UNL1        0.0063
     20 C          59.6650   90.5845    5.6126 C.ar    1  UNL1        0.0194
     21 C          58.3112   91.1286    5.2645 C.ar    1  UNL1        0.1020
     22 N          58.1653   92.1185    4.1470 N.ar    1  UNL1       -0.2101
     23 C          59.7085   93.2064    0.8825 C.3     1  UNL1        0.2542
     24 O          59.2275   93.5541    2.2600 O.3     1  UNL1       -0.4561
     25 C          61.8713   84.2053   11.5526 C.3     1  UNL1        0.0495
     26 C          63.0417   83.2879   11.3563 C.3     1  UNL1        0.0376
     27 C          63.4759   84.0957   10.1694 C.3     1  UNL1        0.0059
     28 C          62.6074   82.4801   12.5433 C.3     1  UNL1        0.0059
     29 C          64.2121   82.3704   11.1601 C.2     1  UNL1        0.0500
     30 O          64.7850   81.6251   12.3289 O.co2   1  UNL1       -0.5492
     31 O          64.8095   82.1983    9.7950 O.co2   1  UNL1       -0.5492
     32 S          64.0694   85.5401   13.5617 S.3     1  UNL1       -0.1142
     33 C          63.9318   85.6044   15.0540 C.3     1  UNL1        0.0434
     34 C          65.2026   86.3970   15.1370 C.3     1  UNL1        0.0112
     35 C          62.6611   84.8118   14.9709 C.3     1  UNL1        0.0112
     36 C          63.7942   85.6686   16.5463 C.3     1  UNL1        0.0112
     37 O          64.1119   91.4381   13.6239 O.3     1  UNL1       -0.4690
     38 C          65.4255   91.9104   13.0749 C.3     1  UNL1        0.2508
     39 C          66.5671   92.1980   14.0044 C.ar    1  UNL1        0.1026
     40 C          66.2991   92.5139   15.4461 C.ar    1  UNL1        0.0185
     41 C          67.4407   92.8014   16.3757 C.ar    1  UNL1        0.0029
     42 C          68.8503   92.7730   15.8636 C.ar    1  UNL1        0.0207
     43 C          69.1183   92.4570   14.4220 C.ar    1  UNL1        0.0986
     44 N          67.9767   92.1695   13.4924 N.ar    1  UNL1       -0.2445
@<TRIPOS>UNITY_ATOM_ATTR
30 1
charge -1
@<TRIPOS>BOND
     1    23    24    1
     2    24    17    1
     3    17    18   ar
     4    18    19   ar
     5    19    20   ar
     6    20    11    1
     7    11    12   ar
     8    12    13   ar
     9    13    14   ar
    10    14    10    1
    11    10     1    1
    12     1     2   ar
    13     2    25    1
    14    25    26    1
    15    26    27    1
    16    26    28    1
    17    26    29    1
    18    29    30   ar
    19    29    31   ar
    20     2     3   ar
    21     3    32    1
    22    32    33    1
    23    33    34    1
    24    33    35    1
    25    33    36    1
    26     3     4   ar
    27     4     5   ar
    28     5     6   ar
    29     6    37    1
    30    37    38    1
    31    38    39    1
    32    39    40   ar
    33    40    41   ar
    34    41    42   ar
    35    42    43   ar
    36    43    44   ar
    37     6     7   ar
    38     7     8   ar
    39     8     9   ar
    40    14    15   ar
    41    15    16   ar
    42    20    21   ar
    43    21    22   ar
    44    22    17   ar
    45    16    11   ar
    46     9     1   ar
    47     9     4   ar
    48    44    39   ar
@<TRIPOS>MOLECULE
*****
 44 48 0 0 0
SMALL
GASTEIGER

@<TRIPOS>ATOM
      1 N          61.7268   87.0854   11.5460 N.ar    1  UNL1       -0.3260
      2 C          62.4092   86.0943   12.4416 C.ar    1  UNL1        0.0433
      3 C          63.4666   86.8221   13.2176 C.ar    1  UNL1        0.0383
      4 C          63.4378   88.2629   12.8017 C.ar    1  UNL1        0.0256
      5 C          64.2517   89.4478   13.2302 C.ar    1  UNL1        0.0389
      6 C          63.9904   90.7954   12.6255 C.ar    1  UNL1        0.1392
      7 C          62.9152   90.9582   11.5924 C.ar    1  UNL1        0.0384
      8 C          62.1012   89.7733   11.1639 C.ar    1  UNL1        0.0203
      9 C          62.3625   88.4257   11.7686 C.ar    1  UNL1        0.0606
     10 C          60.6056   86.7885   10.5949 C.3     1  UNL1        0.1324
     11 C          59.8556   89.5008    7.0835 C.ar    1  UNL1        0.0015
     12 C          59.9046   88.0147    6.8862 C.ar    1  UNL1       -0.0002
     13 C          60.1546   87.1106    8.0566 C.ar    1  UNL1       -0.0024
     14 C          60.3556   87.6925    9.4245 C.ar    1  UNL1        0.0004
     15 C          60.3066   89.1787    9.6217 C.ar    1  UNL1       -0.0024
     16 C          60.0566   90.0829    8.4513 C.ar    1  UNL1       -0.0002
     17 C          59.1056   92.2134    3.5721 C.ar    1  UNL1        0.2250
     18 C          60.5048   91.7876    3.9055 C.ar    1  UNL1        0.0577
     19 C          60.7548   90.8834    5.0759 C.ar    1  UNL1        0.0063
     20 C          59.6056   90.4050    5.9130 C.ar    1  UNL1        0.0194
     21 C          58.2064   90.8308    5.5796 C.ar    1  UNL1        0.1020
     22 N          57.9564   91.7350    4.4092 N.ar    1  UNL1       -0.2101
     23 C          59.8347   93.1628    1.2663 C.3     1  UNL1        0.2542
     24 O          58.8556   93.1175    2.4017 O.3     1  UNL1       -0.4561
     25 C          62.0901   84.6322   12.5433 C.3     1  UNL1        0.0495
     26 C          62.8738   83.6359   11.7413 C.3     1  UNL1        0.0376
     27 C          62.6668   82.6089   12.8148 C.3     1  UNL1        0.0059
     28 C          63.0809   84.6629   10.6679 C.3     1  UNL1        0.0059
     29 C          63.6576   82.6396   10.9393 C.2     1  UNL1        0.0500
     30 O          64.9745   83.0311   10.3372 O.co2   1  UNL1       -0.5492
     31 O          63.1245   81.2519   10.7395 O.co2   1  UNL1       -0.5492
     32 S          64.3906   86.2154   14.2316 S.3     1  UNL1       -0.1142
     33 C          63.8956   85.9225   15.6170 C.3     1  UNL1        0.0434
     34 C          63.6933   87.3896   15.8550 C.3     1  UNL1        0.0112
     35 C          64.0979   84.4554   15.3790 C.3     1  UNL1        0.0112
     36 C          63.4006   85.6295   17.0023 C.3     1  UNL1        0.0112
     37 O          64.8044   91.9803   13.0540 O.3     1  UNL1       -0.4690
     38 C          66.2671   92.0429   12.7277 C.3     1  UNL1        0.2508
     39 C          66.7454   92.8909   11.5867 C.ar    1  UNL1        0.1026
     40 C          67.5214   92.2689   10.4638 C.ar    1  UNL1        0.0185
     41 C          67.9997   93.1171    9.3227 C.ar    1  UNL1        0.0029
     42 C          67.7020   94.5871    9.3046 C.ar    1  UNL1        0.0207
     43 C          66.9260   95.2091   10.4275 C.ar    1  UNL1        0.0986
     44 N          66.4477   94.3610   11.5685 N.ar    1  UNL1       -0.2445
@<TRIPOS>UNITY_ATOM_ATTR
30 1
charge -1
@<TRIPOS>BOND
     1    23    24    1
     2    24    17    1
     3    17    18   ar
     4    18    19   ar
     5    19    20   ar
     6    20    11    1
     7    11    12   ar
     8    12    13   ar
     9    13    14   ar
    10    14    10    1
    11    10     1    1
    12     1     2   ar
    13     2    25    1
    14    25    26    1
    15    26    27    1
    16    26    28    1
    17    26    29    1
    18    29    30   ar
    19    29    31   ar
    20     2     3   ar
    21     3    32    1
    22    32    33    1
    23    33    34    1
    24    33    35    1
    25    33    36    1
    26     3     4   ar
    27     4     5   ar
    28     5     6   ar
    29     6    37    1
    30    37    38    1
    31    38    39    1
    32    39    40   ar
    33    40    41   ar
    34    41    42   ar
    35    42    43   ar
    36    43    44   ar
    37     6     7   ar
    38     7     8   ar
    39     8     9   ar
    40    14    15   ar
    41    15    16   ar
    42    20    21   ar
    43    21    22   ar
    44    22    17   ar
    45    16    11   ar
    46     9     1   ar
    47     9     4   ar
    48    44    39   ar
@<TRIPOS>MOLECULE
*****
 44 48 0 0 0
SMALL
GASTEIGER

@<TRIPOS>ATOM
      1 N          64.4280   90.3865   14.4651 N.ar    1  UNL1       -0.3260
      2 C          65.3293   91.5829   14.3851 C.ar    1  UNL1        0.0433
      3 C          65.1316   92.2231   13.0430 C.ar    1  UNL1        0.0383
      4 C          64.1082   91.4224   12.2937 C.ar    1  UNL1        0.0256
      5 C          63.5161   91.5802   10.9246 C.ar    1  UNL1        0.0389
      6 C          62.4892   90.6029   10.4344 C.ar    1  UNL1        0.1392
      7 C          62.0543   89.4679   11.3133 C.ar    1  UNL1        0.0384
      8 C          62.6464   89.3100   12.6824 C.ar    1  UNL1        0.0203
      9 C          63.6734   90.2873   13.1726 C.ar    1  UNL1        0.0606
     10 C          64.3033   89.4531   15.6328 C.3     1  UNL1        0.1324
     11 C          63.5286   85.0747   14.9408 C.ar    1  UNL1        0.0015
     12 C          63.0897   85.7208   16.2213 C.ar    1  UNL1       -0.0002
     13 C          63.3479   87.1803   16.4520 C.ar    1  UNL1       -0.0024
     14 C          64.0451   87.9937   15.4021 C.ar    1  UNL1        0.0004
     15 C          64.4840   87.3476   14.1215 C.ar    1  UNL1       -0.0024
     16 C          64.2258   85.8881   13.8908 C.ar    1  UNL1       -0.0002
     17 C          62.7540   80.6963   14.2486 C.ar    1  UNL1        0.2250
     18 C          61.6043   81.6389   14.4484 C.ar    1  UNL1        0.0577
     19 C          61.8625   83.0983   14.6791 C.ar    1  UNL1        0.0063
     20 C          63.2704   83.6152   14.7101 C.ar    1  UNL1        0.0194
     21 C          64.4200   82.6726   14.5103 C.ar    1  UNL1        0.1020
     22 N          64.1618   81.2131   14.2796 N.ar    1  UNL1       -0.2101
     23 C          62.4276   78.6991   12.6193 C.3     1  UNL1        0.2542
     24 O          62.4958   79.2368   14.0179 O.3     1  UNL1       -0.4561
     25 C          66.2640   92.0560   15.4586 C.3     1  UNL1        0.0495
     26 C          67.6786   92.4179   15.1152 C.3     1  UNL1        0.0376
     27 C          67.8919   91.0459   14.5477 C.3     1  UNL1        0.0059
     28 C          67.4654   93.7899   15.6828 C.3     1  UNL1        0.0059
     29 C          69.0933   92.7798   14.7719 C.2     1  UNL1        0.0500
     30 O          69.7913   93.8738   15.5242 O.co2   1  UNL1       -0.5492
     31 O          69.8099   92.0476   13.6763 O.co2   1  UNL1       -0.5492
     32 S          65.8340   93.4488   12.5388 S.3     1  UNL1       -0.1142
     33 C          66.3753   93.4811   11.1402 C.3     1  UNL1        0.0434
     34 C          67.1878   92.2531   11.4263 C.3     1  UNL1        0.0112
     35 C          65.5628   94.7091   10.8542 C.3     1  UNL1        0.0112
     36 C          66.9165   93.5135    9.7417 C.3     1  UNL1        0.0112
     37 O          61.8970   90.7607    9.0652 O.3     1  UNL1       -0.4690
     38 C          60.5366   90.2033    8.7677 C.3     1  UNL1        0.2508
     39 C          60.3741   88.7431    8.4655 C.ar    1  UNL1        0.1026
     40 C          59.1834   88.2661    7.6878 C.ar    1  UNL1        0.0185
     41 C          59.0209   86.8058    7.3856 C.ar    1  UNL1        0.0029
     42 C          60.0491   85.8226    7.8610 C.ar    1  UNL1        0.0207
     43 C          61.2398   86.2996    8.6387 C.ar    1  UNL1        0.0986
     44 N          61.4023   87.7598    8.9409 N.ar    1  UNL1       -0.2445
@<TRIPOS>UNITY_ATOM_ATTR
30 1
charge -1
@<TRIPOS>BOND
     1    23    24    1
     2    24    17    1
     3    17    18   ar
     4    18    19   ar
     5    19    20   ar
     6    20    11    1
     7    11    12   ar
     8    12    13   ar
     9    13    14   ar
    10    14    10    1
    11    10     1    1
    12     1     2   ar
    13     2    25    1
    14    25    26    1
    15    26    27    1
    16    26    28    1
    17    26    29    1
    18    29    30   ar
    19    29    31   ar
    20     2     3   ar
    21     3    32    1
    22    32    33    1
    23    33    34    1
    24    33    35    1
    25    33    36    1
    26     3     4   ar
    27     4     5   ar
    28     5     6   ar
    29     6    37    1
    30    37    38    1
    31    38    39    1
    32    39    40   ar
    33    40    41   ar
    34    41    42   ar
    35    42    43   ar
    36    43    44   ar
    37     6     7   ar
    38     7     8   ar
    39     8     9   ar
    40    14    15   ar
    41    15    16   ar
    42    20    21   ar
    43    21    22   ar
    44    22    17   ar
    45    16    11   ar
    46     9     1   ar
    47     9     4   ar
    48    44    39   ar
@<TRIPOS>MOLECULE
*****
 44 48 0 0 0
SMALL
GASTEIGER

@<TRIPOS>ATOM
      1 N          63.5976   88.6561   13.1364 N.ar    1  UNL1       -0.3260
      2 C          64.3053   89.9787   13.1403 C.ar    1  UNL1        0.0433
      3 C          63.6565   90.8545   12.1098 C.ar    1  UNL1        0.0383
      4 C          62.5479   90.0732   11.4690 C.ar    1  UNL1        0.0256
      5 C          61.5669   90.4235   10.3897 C.ar    1  UNL1        0.0389
      6 C          60.5495   89.4150    9.9449 C.ar    1  UNL1        0.1392
      7 C          60.5131   88.0563   10.5794 C.ar    1  UNL1        0.0384
      8 C          61.4941   87.7061   11.6587 C.ar    1  UNL1        0.0203
      9 C          62.5115   88.7145   12.1035 C.ar    1  UNL1        0.0606
     10 C          63.9195   87.4813   14.0118 C.3     1  UNL1        0.1324
     11 C          63.2874   83.2963   12.4836 C.ar    1  UNL1        0.0015
     12 C          63.8850   83.5166   13.8416 C.ar    1  UNL1       -0.0002
     13 C          64.0957   84.9116   14.3511 C.ar    1  UNL1       -0.0024
     14 C          63.7088   86.0864   13.5024 C.ar    1  UNL1        0.0004
     15 C          63.1113   85.8661   12.1443 C.ar    1  UNL1       -0.0024
     16 C          62.9005   84.4711   11.6349 C.ar    1  UNL1       -0.0002
     17 C          62.6552   79.1113   10.9552 C.ar    1  UNL1        0.2250
     18 C          63.0383   80.2069   10.0049 C.ar    1  UNL1        0.0577
     19 C          63.2490   81.6019   10.5144 C.ar    1  UNL1        0.0063
     20 C          63.0767   81.9013   11.9741 C.ar    1  UNL1        0.0194
     21 C          62.6936   80.8057   12.9243 C.ar    1  UNL1        0.1020
     22 N          62.4829   79.4107   12.4149 N.ar    1  UNL1       -0.2101
     23 C          63.6229   76.8745   10.0551 C.3     1  UNL1        0.2542
     24 O          62.4445   77.7163   10.4457 O.3     1  UNL1       -0.4561
     25 C          65.4591   90.3587   14.0203 C.3     1  UNL1        0.0495
     26 C          65.2511   91.3111   15.1602 C.3     1  UNL1        0.0376
     27 C          63.8614   90.7797   15.3506 C.3     1  UNL1        0.0059
     28 C          66.6408   91.8426   14.9698 C.3     1  UNL1        0.0059
     29 C          65.0430   92.2636   16.3002 C.2     1  UNL1        0.0500
     30 O          63.6644   92.4898   16.8465 O.co2   1  UNL1       -0.5492
     31 O          66.2134   92.9899   16.8939 O.co2   1  UNL1       -0.5492
     32 S          64.0477   92.2641   11.7782 S.3     1  UNL1       -0.1142
     33 C          65.3506   92.5381   11.0870 C.3     1  UNL1        0.0434
     34 C          64.9342   91.6518    9.9508 C.3     1  UNL1        0.0112
     35 C          65.7668   93.4245   12.2233 C.3     1  UNL1        0.0112
     36 C          66.6534   92.8122   10.3960 C.3     1  UNL1        0.0112
     37 O          59.5685   89.7653    8.8656 O.3     1  UNL1       -0.4690
     38 C          59.8086   89.3091    7.4569 C.3     1  UNL1        0.2508
     39 C          59.4715   90.2127    6.3082 C.ar    1  UNL1        0.1026
     40 C          60.5665   90.7837    5.4567 C.ar    1  UNL1        0.0185
     41 C          60.2293   91.6874    4.3078 C.ar    1  UNL1        0.0029
     42 C          58.7973   92.0201    4.0106 C.ar    1  UNL1        0.0207
     43 C          57.7023   91.4491    4.8621 C.ar    1  UNL1        0.0986
     44 N          58.0394   90.5455    6.0108 N.ar    1  UNL1       -0.2445
@<TRIPOS>UNITY_ATOM_ATTR
30 1
charge -1
@<TRIPOS>BOND
     1    23    24    1
     2    24    17    1
     3    17    18   ar
     4    18    19   ar
     5    19    20   ar
     6    20    11    1
     7    11    12   ar
     8    12    13   ar
     9    13    14   ar
    10    14    10    1
    11    10     1    1
    12     1     2   ar
    13     2    25    1
    14    25    26    1
    15    26    27    1
    16    26    28    1
    17    26    29    1
    18    29    30   ar
    19    29    31   ar
    20     2     3   ar
    21     3    32    1
    22    32    33    1
    23    33    34    1
    24    33    35    1
    25    33    36    1
    26     3     4   ar
    27     4     5   ar
    28     5     6   ar
    29     6    37    1
    30    37    38    1
    31    38    39    1
    32    39    40   ar
    33    40    41   ar
    34    41    42   ar
    35    42    43   ar
    36    43    44   ar
    37     6     7   ar
    38     7     8   ar
    39     8     9   ar
    40    14    15   ar
    41    15    16   ar
    42    20    21   ar
    43    21    22   ar
    44    22    17   ar
    45    16    11   ar
    46     9     1   ar
    47     9     4   ar
    48    44    39   ar
@<TRIPOS>MOLECULE
*****
 44 48 0 0 0
SMALL
GASTEIGER

@<TRIPOS>ATOM
      1 N          64.0973   89.3577   13.6559 N.ar    1  UNL1       -0.3260
      2 C          64.9703   90.5595   13.4472 C.ar    1  UNL1        0.0433
      3 C          64.3200   91.4309   12.4139 C.ar    1  UNL1        0.0383
      4 C          63.0451   90.7677   11.9840 C.ar    1  UNL1        0.0256
      5 C          61.9917   91.1650   10.9928 C.ar    1  UNL1        0.0389
      6 C          60.8008   90.2810   10.7692 C.ar    1  UNL1        0.1392
      7 C          60.6631   88.9996   11.5368 C.ar    1  UNL1        0.0384
      8 C          61.7165   88.6023   12.5280 C.ar    1  UNL1        0.0203
      9 C          62.9074   89.4864   12.7517 C.ar    1  UNL1        0.0606
     10 C          64.3667   88.2259   14.6028 C.3     1  UNL1        0.1324
     11 C          63.5592   83.9860   13.3294 C.ar    1  UNL1        0.0015
     12 C          63.1501   85.1258   12.4443 C.ar    1  UNL1       -0.0002
     13 C          63.4192   86.5391   12.8687 C.ar    1  UNL1       -0.0024
     14 C          64.0976   86.8127   14.1783 C.ar    1  UNL1        0.0004
     15 C          64.5068   85.6728   15.0635 C.ar    1  UNL1       -0.0024
     16 C          64.2376   84.2595   14.6391 C.ar    1  UNL1       -0.0002
     17 C          62.7518   79.7461   12.0563 C.ar    1  UNL1        0.2250
     18 C          63.1159   80.7802   11.0324 C.ar    1  UNL1        0.0577
     19 C          63.3850   82.1935   11.4568 C.ar    1  UNL1        0.0063
     20 C          63.2901   82.5727   12.9050 C.ar    1  UNL1        0.0194
     21 C          62.9260   81.5386   13.9288 C.ar    1  UNL1        0.1020
     22 N          62.6568   80.1253   13.5044 N.ar    1  UNL1       -0.2101
     23 C          62.7488   77.9109   10.2173 C.3     1  UNL1        0.2542
     24 O          62.4826   78.3328   11.6319 O.3     1  UNL1       -0.4561
     25 C          66.2661   90.8405   14.1486 C.3     1  UNL1        0.0495
     26 C          66.3070   91.8186   15.2851 C.3     1  UNL1        0.0376
     27 C          67.7572   92.0815   15.0066 C.3     1  UNL1        0.0059
     28 C          64.8567   91.5557   15.5636 C.3     1  UNL1        0.0059
     29 C          66.3479   92.7968   16.4216 C.2     1  UNL1        0.0500
     30 O          67.5485   93.6756   16.6118 O.co2   1  UNL1       -0.5492
     31 O          65.1883   92.8961   17.3678 O.co2   1  UNL1       -0.5492
     32 S          64.8513   92.7363   11.9006 S.3     1  UNL1       -0.1142
     33 C          66.0697   92.7583   11.0258 C.3     1  UNL1        0.0434
     34 C          66.7711   93.6302   12.0247 C.3     1  UNL1        0.0112
     35 C          65.3682   91.8864   10.0270 C.3     1  UNL1        0.0112
     36 C          67.2880   92.7802   10.1510 C.3     1  UNL1        0.0112
     37 O          59.7474   90.6783    9.7779 O.3     1  UNL1       -0.4690
     38 C          59.7063   90.0289    8.4264 C.3     1  UNL1        0.2508
     39 C          60.0017   88.5648    8.2885 C.ar    1  UNL1        0.1026
     40 C          59.0119   87.6599    7.6165 C.ar    1  UNL1        0.0185
     41 C          59.3074   86.1957    7.4786 C.ar    1  UNL1        0.0029
     42 C          60.5927   85.6365    8.0127 C.ar    1  UNL1        0.0207
     43 C          61.5825   86.5413    8.6847 C.ar    1  UNL1        0.0986
     44 N          61.2870   88.0054    8.8226 N.ar    1  UNL1       -0.2445
@<TRIPOS>UNITY_ATOM_ATTR
30 1
charge -1
@<TRIPOS>BOND
     1    23    24    1
     2    24    17    1
     3    17    18   ar
     4    18    19   ar
     5    19    20   ar
     6    20    11    1
     7    11    12   ar
     8    12    13   ar
     9    13    14   ar
    10    14    10    1
    11    10     1    1
    12     1     2   ar
    13     2    25    1
    14    25    26    1
    15    26    27    1
    16    26    28    1
    17    26    29    1
    18    29    30   ar
    19    29    31   ar
    20     2     3   ar
    21     3    32    1
    22    32    33    1
    23    33    34    1
    24    33    35    1
    25    33    36    1
    26     3     4   ar
    27     4     5   ar
    28     5     6   ar
    29     6    37    1
    30    37    38    1
    31    38    39    1
    32    39    40   ar
    33    40    41   ar
    34    41    42   ar
    35    42    43   ar
    36    43    44   ar
    37     6     7   ar
    38     7     8   ar
    39     8     9   ar
    40    14    15   ar
    41    15    16   ar
    42    20    21   ar
    43    21    22   ar
    44    22    17   ar
    45    16    11   ar
    46     9     1   ar
    47     9     4   ar
    48    44    39   ar
@<TRIPOS>MOLECULE
*****
 44 48 0 0 0
SMALL
GASTEIGER

@<TRIPOS>ATOM
      1 N          61.9925   86.6873   10.8474 N.ar    1  UNL1       -0.3260
      2 C          62.7511   85.6411   10.0859 C.ar    1  UNL1        0.0433
      3 C          62.3736   85.7563    8.6387 C.ar    1  UNL1        0.0383
      4 C          61.3818   86.8737    8.5058 C.ar    1  UNL1        0.0256
      5 C          60.6627   87.4415    7.3182 C.ar    1  UNL1        0.0389
      6 C          59.7080   88.5847    7.4957 C.ar    1  UNL1        0.1392
      7 C          59.4724   89.1602    8.8608 C.ar    1  UNL1        0.0384
      8 C          60.1915   88.5923   10.0484 C.ar    1  UNL1        0.0203
      9 C          61.1462   87.4491    9.8709 C.ar    1  UNL1        0.0606
     10 C          62.0670   86.9293   12.3259 C.3     1  UNL1        0.1324
     11 C          64.7699   90.1412   13.9468 C.ar    1  UNL1        0.0015
     12 C          64.7596   88.7806   14.5780 C.ar    1  UNL1       -0.0002
     13 C          63.8586   87.7099   14.0378 C.ar    1  UNL1       -0.0024
     14 C          62.9679   87.9999   12.8662 C.ar    1  UNL1        0.0004
     15 C          62.9783   89.3606   12.2349 C.ar    1  UNL1       -0.0024
     16 C          63.8792   90.4313   12.7752 C.ar    1  UNL1       -0.0002
     17 C          67.4727   93.3533   15.5677 C.ar    1  UNL1        0.2250
     18 C          67.7864   92.7019   14.2533 C.ar    1  UNL1        0.0577
     19 C          66.8854   91.6313   13.7130 C.ar    1  UNL1        0.0063
     20 C          65.6708   91.2119   14.4871 C.ar    1  UNL1        0.0194
     21 C          65.3573   91.8633   15.8014 C.ar    1  UNL1        0.1020
     22 N          66.2582   92.9340   16.3417 N.ar    1  UNL1       -0.2101
     23 C          69.8608   94.2286   16.0976 C.3     1  UNL1        0.2542
     24 O          68.3737   94.4240   16.1079 O.3     1  UNL1       -0.4561
     25 C          63.7174   84.6531   10.6691 C.3     1  UNL1        0.0495
     26 C          63.2264   83.3231   11.1586 C.3     1  UNL1        0.0376
     27 C          63.9120   82.6467   10.0087 C.3     1  UNL1        0.0059
     28 C          62.5407   83.9995   12.3085 C.3     1  UNL1        0.0059
     29 C          62.7353   81.9929   11.6482 C.2     1  UNL1        0.0500
     30 O          62.0208   81.8950   12.9635 O.co2   1  UNL1       -0.5492
     31 O          62.9587   80.7607   10.8225 O.co2   1  UNL1       -0.5492
     32 S          62.8963   84.9037    7.5206 S.3     1  UNL1       -0.1142
     33 C          62.0021   84.5429    6.3715 C.3     1  UNL1        0.0434
     34 C          63.1829   84.5621    5.4467 C.3     1  UNL1        0.0112
     35 C          60.8214   84.5237    7.2964 C.3     1  UNL1        0.0112
     36 C          61.1080   84.1821    5.2225 C.3     1  UNL1        0.0112
     37 O          58.9889   89.1526    6.3081 O.3     1  UNL1       -0.4690
     38 C          58.9057   90.6387    6.1218 C.3     1  UNL1        0.2508
     39 C          59.6647   91.2988    5.0091 C.ar    1  UNL1        0.1026
     40 C          61.0987   90.9355    4.7608 C.ar    1  UNL1        0.0185
     41 C          61.8578   91.5956    3.6480 C.ar    1  UNL1        0.0029
     42 C          61.1828   92.6189    2.7836 C.ar    1  UNL1        0.0207
     43 C          59.7488   92.9822    3.0319 C.ar    1  UNL1        0.0986
     44 N          58.9898   92.3221    4.1446 N.ar    1  UNL1       -0.2445
@<TRIPOS>UNITY_ATOM_ATTR
30 1
charge -1
@<TRIPOS>BOND
     1    23    24    1
     2    24    17    1
     3    17    18   ar
     4    18    19   ar
     5    19    20   ar
     6    20    11    1
     7    11    12   ar
     8    12    13   ar
     9    13    14   ar
    10    14    10    1
    11    10     1    1
    12     1     2   ar
    13     2    25    1
    14    25    26    1
    15    26    27    1
    16    26    28    1
    17    26    29    1
    18    29    30   ar
    19    29    31   ar
    20     2     3   ar
    21     3    32    1
    22    32    33    1
    23    33    34    1
    24    33    35    1
    25    33    36    1
    26     3     4   ar
    27     4     5   ar
    28     5     6   ar
    29     6    37    1
    30    37    38    1
    31    38    39    1
    32    39    40   ar
    33    40    41   ar
    34    41    42   ar
    35    42    43   ar
    36    43    44   ar
    37     6     7   ar
    38     7     8   ar
    39     8     9   ar
    40    14    15   ar
    41    15    16   ar
    42    20    21   ar
    43    21    22   ar
    44    22    17   ar
    45    16    11   ar
    46     9     1   ar
    47     9     4   ar
    48    44    39   ar
