@<TRIPOS>MOLECULE
*****
 39 44 0 0 0
SMALL
GASTEIGER

@<TRIPOS>ATOM
      1 N          61.2910   87.0507    9.7602 N.am    1  UNL1       -0.2754
      2 C          61.6294   85.9583   10.7309 C.3     1  UNL1        0.1202
      3 C          62.4261   85.8755   11.9992 C.ar    1  UNL1        0.0005
      4 C          62.3249   84.4418   12.4283 C.ar    1  UNL1        0.0205
      5 C          63.0121   83.9835   13.6803 C.ar    1  UNL1        0.1524
      6 N          63.8005   84.9589   14.5032 N.ar    1  UNL1       -0.2399
      7 C          63.9017   86.3926   14.0741 C.ar    1  UNL1        0.0983
      8 C          63.2145   86.8509   12.8220 C.ar    1  UNL1        0.0188
      9 C          63.5327   88.3131   12.7175 C.2     1  UNL1        0.0527
     10 C          64.3846   88.6115   13.9155 C.2     1  UNL1        0.1911
     11 N          64.8982   90.0024   14.1428 N.2     1  UNL1       -0.0723
     12 C          64.5599   91.0948   13.1721 C.cat   1  UNL1        0.3804
     13 N          63.7080   90.7963   11.9742 N.pl3   1  UNL1       -0.1554
     14 C          63.2316   91.6927   10.8698 C.2     1  UNL1        0.2413
     15 N          62.4058   90.8683    9.9273 N.2     1  UNL1       -0.2277
     16 C          62.3976   89.4883   10.4786 C.3     1  UNL1        0.2204
     17 C          61.6093   88.5129    9.6557 C.2     1  UNL1        0.2519
     18 O          60.9950   89.1489    8.4441 O.2     1  UNL1       -0.2726
     19 C          63.1944   89.4055   11.7469 C.3     1  UNL1        0.1964
     20 C          62.9110   82.5497   14.1096 C.3     1  UNL1        0.4348
     21 F          62.8098   81.1160   14.5387 F       1  UNL1       -0.1644
     22 F          62.0280   82.2596   12.9322 F       1  UNL1       -0.1644
     23 F          63.7939   82.8398   15.2869 F       1  UNL1       -0.1644
     24 C          61.0226   85.6954    7.5600 C.3     1  UNL1        0.0215
     25 C          60.4332   86.5676    8.6286 C.3     1  UNL1        0.0758
     26 C          58.9859   86.9568    8.5654 C.3     1  UNL1        0.0215
     27 N          65.0735   92.4857   13.3995 N.pl3   1  UNL1       -0.2203
     28 H          64.4590   93.1947   13.6978 H       1  UNL1        0.2456
     29 C          66.5232   92.7964   13.1722 C.3     1  UNL1        0.1927
     30 C          67.0409   92.9809   11.7764 C.ar    1  UNL1        0.0412
     31 C          68.0530   92.0242   11.2193 C.ar    1  UNL1        0.1391
     32 F          68.5473   90.8829   12.0579 F       1  UNL1       -0.2044
     33 C          68.5706   92.2087    9.8236 C.ar    1  UNL1        0.0325
     34 C          68.0762   93.3499    8.9851 C.ar    1  UNL1        0.0389
     35 C          67.0642   94.3067    9.5423 C.ar    1  UNL1        0.1346
     36 C          66.5465   94.1222   10.9379 C.ar    1  UNL1        0.0168
     37 C          65.5594   95.2171   11.2147 C.3     1  UNL1        0.0766
     38 C          65.4670   96.0783    9.9901 C.3     1  UNL1        0.2101
     39 O          66.3970   95.5157    8.9565 O.3     1  UNL1       -0.4754
@<TRIPOS>BOND
     1    24    25    1
     2    25    26    1
     3    25     1    1
     4     1     2    1
     5     2     3    1
     6     3     4   ar
     7     4     5   ar
     8     5    20    1
     9    20    21    1
    10    20    22    1
    11    20    23    1
    12     5     6   ar
    13     6     7   ar
    14     7     8   ar
    15     8     9    1
    16     9    10    2
    17    10    11    1
    18    11    12    2
    19    12    27    1
    20    27    29    1
    21    29    30    1
    22    30    31   ar
    23    31    32    1
    24    31    33   ar
    25    33    34   ar
    26    34    35   ar
    27    35    36   ar
    28    36    37    1
    29    37    38    1
    30    38    39    1
    31    12    13    1
    32    13    14    1
    33    14    15    2
    34    15    16    1
    35    16    17    1
    36    17    18    2
    37    16    19    1
    38    17     1   am
    39     8     3   ar
    40    19     9    1
    41    36    30   ar
    42    19    13    1
    43    39    35    1
    44    27    28    1
@<TRIPOS>MOLECULE
*****
 39 44 0 0 0
SMALL
GASTEIGER

@<TRIPOS>ATOM
      1 N          61.4398   86.6823    9.8114 N.am    1  UNL1       -0.2754
      2 C          61.7834   85.4074   10.5230 C.3     1  UNL1        0.1202
      3 C          62.5229   85.0611   11.7814 C.ar    1  UNL1        0.0005
      4 C          62.4695   83.5644   11.8637 C.ar    1  UNL1        0.0205
      5 C          63.1181   82.8530   13.0140 C.ar    1  UNL1        0.1524
      6 N          63.8202   83.6383   14.0818 N.ar    1  UNL1       -0.2399
      7 C          63.8736   85.1350   13.9995 C.ar    1  UNL1        0.0983
      8 C          63.2250   85.8465   12.8493 C.ar    1  UNL1        0.0188
      9 C          63.4784   87.3033   13.1012 C.2     1  UNL1        0.0527
     10 C          64.2583   87.3459   14.3818 C.2     1  UNL1        0.1911
     11 N          64.6944   88.6635   14.9507 N.2     1  UNL1       -0.0723
     12 C          64.3508   89.9384   14.2391 C.cat   1  UNL1        0.3804
     13 N          63.5710   89.8958   12.9585 N.pl3   1  UNL1       -0.1554
     14 C          63.1051   91.0063   12.0641 C.2     1  UNL1        0.2413
     15 N          62.3642   90.3941   10.9125 N.2     1  UNL1       -0.2277
     16 C          62.3953   88.9245   11.1311 C.3     1  UNL1        0.2204
     17 C          61.6932   88.1392   10.0633 C.2     1  UNL1        0.2519
     18 O          61.1071   89.0165    8.9972 O.2     1  UNL1       -0.2726
     19 C          63.1348   88.5783   12.3895 C.3     1  UNL1        0.1964
     20 C          63.0647   81.3561   13.0964 C.3     1  UNL1        0.4348
     21 F          63.0113   79.8594   13.1788 F       1  UNL1       -0.1644
     22 F          64.5613   81.2982   13.0143 F       1  UNL1       -0.1644
     23 F          61.5681   81.4140   13.1784 F       1  UNL1       -0.1644
     24 C          61.2798   85.6840    7.4181 C.3     1  UNL1        0.0215
     25 C          60.6596   86.4446    8.5525 C.3     1  UNL1        0.0758
     26 C          59.2592   86.9676    8.4279 C.3     1  UNL1        0.0215
     27 N          64.7870   91.2560   14.8081 N.pl3   1  UNL1       -0.2203
     28 H          64.8172   91.3852   15.7836 H       1  UNL1        0.2456
     29 C          65.1772   92.3769   13.8908 C.3     1  UNL1        0.1927
     30 C          66.4034   92.2538   13.0355 C.ar    1  UNL1        0.0412
     31 C          67.6188   91.5511   13.5638 C.ar    1  UNL1        0.1391
     32 F          67.6080   90.9715   14.9473 F       1  UNL1       -0.2044
     33 C          68.8449   91.4280   12.7086 C.ar    1  UNL1        0.0325
     34 C          68.8557   92.0077   11.3252 C.ar    1  UNL1        0.0389
     35 C          67.6403   92.7104   10.7970 C.ar    1  UNL1        0.1346
     36 C          66.4142   92.8334   11.6521 C.ar    1  UNL1        0.0168
     37 C          65.3738   93.5756   10.8667 C.3     1  UNL1        0.0766
     38 C          65.9570   93.9112    9.5261 C.3     1  UNL1        0.2101
     39 O          67.3578   93.3764    9.4830 O.3     1  UNL1       -0.4754
@<TRIPOS>BOND
     1    24    25    1
     2    25    26    1
     3    25     1    1
     4     1     2    1
     5     2     3    1
     6     3     4   ar
     7     4     5   ar
     8     5    20    1
     9    20    21    1
    10    20    22    1
    11    20    23    1
    12     5     6   ar
    13     6     7   ar
    14     7     8   ar
    15     8     9    1
    16     9    10    2
    17    10    11    1
    18    11    12    2
    19    12    27    1
    20    27    29    1
    21    29    30    1
    22    30    31   ar
    23    31    32    1
    24    31    33   ar
    25    33    34   ar
    26    34    35   ar
    27    35    36   ar
    28    36    37    1
    29    37    38    1
    30    38    39    1
    31    12    13    1
    32    13    14    1
    33    14    15    2
    34    15    16    1
    35    16    17    1
    36    17    18    2
    37    16    19    1
    38    17     1   am
    39     8     3   ar
    40    19     9    1
    41    36    30   ar
    42    19    13    1
    43    39    35    1
    44    27    28    1
@<TRIPOS>MOLECULE
*****
 39 44 0 0 0
SMALL
GASTEIGER

@<TRIPOS>ATOM
      1 N          61.1638   86.4854    9.3731 N.am    1  UNL1       -0.2754
      2 C          61.5857   85.2426   10.0993 C.3     1  UNL1        0.1202
      3 C          62.3630   84.9572   11.3501 C.ar    1  UNL1        0.0005
      4 C          62.3899   83.4614   11.4577 C.ar    1  UNL1        0.0205
      5 C          63.0939   82.8047   12.6079 C.ar    1  UNL1        0.1524
      6 N          63.7711   83.6439   13.6505 N.ar    1  UNL1       -0.2399
      7 C          63.7443   85.1397   13.5430 C.ar    1  UNL1        0.0983
      8 C          63.0403   85.7964   12.3927 C.ar    1  UNL1        0.0188
      9 C          63.2207   87.2687   12.6165 C.2     1  UNL1        0.0527
     10 C          64.0182   87.3740   13.8826 C.2     1  UNL1        0.1911
     11 N          64.3937   88.7221   14.4224 N.2     1  UNL1       -0.0723
     12 C          63.9717   89.9649   13.6962 C.cat   1  UNL1        0.3804
     13 N          63.1743   89.8596   12.4302 N.pl3   1  UNL1       -0.1554
     14 C          62.6359   90.9287   11.5261 C.2     1  UNL1        0.2413
     15 N          61.9094   90.2589   10.3976 N.2     1  UNL1       -0.2277
     16 C          62.0215   88.7969   10.6395 C.3     1  UNL1        0.2204
     17 C          61.3442   87.9577    9.5969 C.2     1  UNL1        0.2519
     18 O          60.6952   88.7847    8.5270 O.2     1  UNL1       -0.2726
     19 C          62.7988   88.5115   11.8903 C.3     1  UNL1        0.1964
     20 C          63.1208   81.3087   12.7155 C.3     1  UNL1        0.4348
     21 F          63.1476   79.8129   12.8230 F       1  UNL1       -0.1644
     22 F          62.7873   81.1979   11.2572 F       1  UNL1       -0.1644
     23 F          63.4542   81.4196   14.1737 F       1  UNL1       -0.1644
     24 C          58.9670   86.6812    7.9998 C.3     1  UNL1        0.0215
     25 C          60.3766   86.1857    8.1319 C.3     1  UNL1        0.0758
     26 C          60.9991   85.3905    7.0228 C.3     1  UNL1        0.0215
     27 N          64.3473   91.3131   14.2361 N.pl3   1  UNL1       -0.2203
     28 H          64.3376   91.4746   15.2072 H       1  UNL1        0.2456
     29 C          64.7375   92.4152   13.2964 C.3     1  UNL1        0.1927
     30 C          66.0172   92.3205   12.5196 C.ar    1  UNL1        0.0412
     31 C          65.9896   92.3651   11.0205 C.ar    1  UNL1        0.1391
     32 F          64.6823   92.5043   10.2982 F       1  UNL1       -0.2044
     33 C          67.2692   92.2704   10.2436 C.ar    1  UNL1        0.0325
     34 C          68.5765   92.1311   10.9659 C.ar    1  UNL1        0.0389
     35 C          68.6041   92.0866   12.4650 C.ar    1  UNL1        0.1346
     36 C          67.3245   92.1813   13.2418 C.ar    1  UNL1        0.0168
     37 C          67.6620   92.1096   14.7015 C.3     1  UNL1        0.0766
     38 C          69.1502   91.9706   14.8269 C.3     1  UNL1        0.2101
     39 O          69.7325   91.9564   13.4446 O.3     1  UNL1       -0.4754
@<TRIPOS>BOND
     1    24    25    1
     2    25    26    1
     3    25     1    1
     4     1     2    1
     5     2     3    1
     6     3     4   ar
     7     4     5   ar
     8     5    20    1
     9    20    21    1
    10    20    22    1
    11    20    23    1
    12     5     6   ar
    13     6     7   ar
    14     7     8   ar
    15     8     9    1
    16     9    10    2
    17    10    11    1
    18    11    12    2
    19    12    27    1
    20    27    29    1
    21    29    30    1
    22    30    31   ar
    23    31    32    1
    24    31    33   ar
    25    33    34   ar
    26    34    35   ar
    27    35    36   ar
    28    36    37    1
    29    37    38    1
    30    38    39    1
    31    12    13    1
    32    13    14    1
    33    14    15    2
    34    15    16    1
    35    16    17    1
    36    17    18    2
    37    16    19    1
    38    17     1   am
    39     8     3   ar
    40    19     9    1
    41    36    30   ar
    42    19    13    1
    43    39    35    1
    44    27    28    1
@<TRIPOS>MOLECULE
*****
 39 44 0 0 0
SMALL
GASTEIGER

@<TRIPOS>ATOM
      1 N          63.1633   85.6998   13.3809 N.am    1  UNL1       -0.2754
      2 C          62.3765   85.7210   12.1040 C.3     1  UNL1        0.1202
      3 C          62.0325   86.7689   11.0872 C.ar    1  UNL1        0.0005
      4 C          61.2010   86.0568   10.0619 C.ar    1  UNL1        0.0205
      5 C          60.6698   86.8055    8.8756 C.ar    1  UNL1        0.1524
      6 N          60.9702   88.2663    8.7147 N.ar    1  UNL1       -0.2399
      7 C          61.8017   88.9783    9.7401 C.ar    1  UNL1        0.0983
      8 C          62.3329   88.2297   10.9263 C.ar    1  UNL1        0.0188
      9 C          63.1017   89.2477   11.7155 C.2     1  UNL1        0.0527
     10 C          62.9684   90.5233   10.9377 C.2     1  UNL1        0.1911
     11 N          63.6219   91.7777   11.4368 N.2     1  UNL1       -0.0723
     12 C          64.4087   91.7566   12.7137 C.cat   1  UNL1        0.3804
     13 N          64.5420   90.4810   13.4915 N.pl3   1  UNL1       -0.1554
     14 C          65.2609   90.1940   14.7764 C.2     1  UNL1        0.2413
     15 N          65.0658   88.7430   15.1026 N.2     1  UNL1       -0.2277
     16 C          64.2324   88.1786   14.0091 C.3     1  UNL1        0.2204
     17 C          63.9320   86.7178   14.1700 C.2     1  UNL1        0.2519
     18 O          64.5440   86.1393   15.4113 O.2     1  UNL1       -0.2726
     19 C          63.8885   89.2265   12.9924 C.3     1  UNL1        0.1964
     20 C          59.8382   86.0934    7.8502 C.3     1  UNL1        0.4348
     21 F          59.0067   85.3813    6.8248 F       1  UNL1       -0.1644
     22 F          61.0674   85.4111    7.3272 F       1  UNL1       -0.1644
     23 F          58.6090   86.7757    8.3731 F       1  UNL1       -0.1644
     24 C          64.2184   83.3360   13.6018 C.3     1  UNL1        0.0215
     25 C          63.1868   84.3422   14.0182 C.3     1  UNL1        0.0758
     26 C          62.1788   83.9907   15.0719 C.3     1  UNL1        0.0215
     27 N          65.0623   93.0112   13.2128 N.pl3   1  UNL1       -0.2203
     28 H          64.5333   93.6791   13.7060 H       1  UNL1        0.2456
     29 C          66.5218   93.2480   12.9605 C.3     1  UNL1        0.1927
     30 C          67.0419   93.2950   11.5543 C.ar    1  UNL1        0.0412
     31 C          67.9883   92.2373   11.0689 C.ar    1  UNL1        0.1391
     32 F          68.4146   91.1326   11.9898 F       1  UNL1       -0.2044
     33 C          68.5084   92.2843    9.6628 C.ar    1  UNL1        0.0325
     34 C          68.0820   93.3890    8.7420 C.ar    1  UNL1        0.0389
     35 C          67.1356   94.4467    9.2274 C.ar    1  UNL1        0.1346
     36 C          66.6155   94.3997   10.6335 C.ar    1  UNL1        0.0168
     37 C          65.7011   95.5725   10.8289 C.3     1  UNL1        0.0766
     38 C          65.6559   96.3444    9.5436 C.3     1  UNL1        0.2101
     39 O          66.5425   95.6486    8.5538 O.3     1  UNL1       -0.4754
@<TRIPOS>BOND
     1    24    25    1
     2    25    26    1
     3    25     1    1
     4     1     2    1
     5     2     3    1
     6     3     4   ar
     7     4     5   ar
     8     5    20    1
     9    20    21    1
    10    20    22    1
    11    20    23    1
    12     5     6   ar
    13     6     7   ar
    14     7     8   ar
    15     8     9    1
    16     9    10    2
    17    10    11    1
    18    11    12    2
    19    12    27    1
    20    27    29    1
    21    29    30    1
    22    30    31   ar
    23    31    32    1
    24    31    33   ar
    25    33    34   ar
    26    34    35   ar
    27    35    36   ar
    28    36    37    1
    29    37    38    1
    30    38    39    1
    31    12    13    1
    32    13    14    1
    33    14    15    2
    34    15    16    1
    35    16    17    1
    36    17    18    2
    37    16    19    1
    38    17     1   am
    39     8     3   ar
    40    19     9    1
    41    36    30   ar
    42    19    13    1
    43    39    35    1
    44    27    28    1
@<TRIPOS>MOLECULE
*****
 39 44 0 0 0
SMALL
GASTEIGER

@<TRIPOS>ATOM
      1 N          61.2708   87.1184    9.7446 N.am    1  UNL1       -0.2754
      2 C          61.6249   86.0719   10.7592 C.3     1  UNL1        0.1202
      3 C          62.4374   86.0487   12.0199 C.ar    1  UNL1        0.0005
      4 C          62.3466   84.6355   12.5144 C.ar    1  UNL1        0.0205
      5 C          63.0507   84.2361   13.7772 C.ar    1  UNL1        0.1524
      6 N          63.8457   85.2499   14.5454 N.ar    1  UNL1       -0.2399
      7 C          63.9366   86.6631   14.0509 C.ar    1  UNL1        0.0983
      8 C          63.2324   87.0625   12.7881 C.ar    1  UNL1        0.0188
      9 C          63.5442   88.5194   12.6139 C.2     1  UNL1        0.0527
     10 C          64.4098   88.8741   13.7865 C.2     1  UNL1        0.1911
     11 N          64.9212   90.2753   13.9444 N.2     1  UNL1       -0.0723
     12 C          64.5671   91.3218   12.9298 C.cat   1  UNL1        0.3804
     13 N          63.7016   90.9671   11.7573 N.pl3   1  UNL1       -0.1554
     14 C          63.2085   91.8114   10.6196 C.2     1  UNL1        0.2413
     15 N          62.3741   90.9429    9.7256 N.2     1  UNL1       -0.2277
     16 C          62.3776   89.5891   10.3386 C.3     1  UNL1        0.2204
     17 C          61.5826   88.5753    9.5704 C.2     1  UNL1        0.2519
     18 O          60.9512   89.1542    8.3390 O.2     1  UNL1       -0.2726
     19 C          63.1901   89.5659   11.5993 C.3     1  UNL1        0.1964
     20 C          62.9599   82.8229   14.2718 C.3     1  UNL1        0.4348
     21 F          62.8691   81.4097   14.7664 F       1  UNL1       -0.1644
     22 F          63.8273   83.1771   15.4431 F       1  UNL1       -0.1644
     23 F          62.0924   82.4687   13.1005 F       1  UNL1       -0.1644
     24 C          58.9570   86.9816    8.5710 C.3     1  UNL1        0.0215
     25 C          60.4008   86.5822    8.6466 C.3     1  UNL1        0.0758
     26 C          60.9747   85.6467    7.6241 C.3     1  UNL1        0.0215
     27 N          65.0786   92.7231   13.0879 N.pl3   1  UNL1       -0.2203
     28 H          64.4830   93.4290   13.4289 H       1  UNL1        0.2456
     29 C          66.4974   93.0489   12.7263 C.3     1  UNL1        0.1927
     30 C          66.7921   93.8495   11.4925 C.ar    1  UNL1        0.0412
     31 C          66.4066   95.2977   11.4284 C.ar    1  UNL1        0.1391
     32 F          65.7265   95.9453   12.5981 F       1  UNL1       -0.2044
     33 C          66.7013   96.0984   10.1947 C.ar    1  UNL1        0.0325
     34 C          67.3814   95.4508    9.0251 C.ar    1  UNL1        0.0389
     35 C          67.7669   94.0026    9.0892 C.ar    1  UNL1        0.1346
     36 C          67.4722   93.2020   10.3229 C.ar    1  UNL1        0.0168
     37 C          67.9663   91.8038   10.0970 C.3     1  UNL1        0.0766
     38 C          68.5662   91.7403    8.7238 C.3     1  UNL1        0.2101
     39 O          68.4430   93.0993    8.1009 O.3     1  UNL1       -0.4754
@<TRIPOS>BOND
     1    24    25    1
     2    25    26    1
     3    25     1    1
     4     1     2    1
     5     2     3    1
     6     3     4   ar
     7     4     5   ar
     8     5    20    1
     9    20    21    1
    10    20    22    1
    11    20    23    1
    12     5     6   ar
    13     6     7   ar
    14     7     8   ar
    15     8     9    1
    16     9    10    2
    17    10    11    1
    18    11    12    2
    19    12    27    1
    20    27    29    1
    21    29    30    1
    22    30    31   ar
    23    31    32    1
    24    31    33   ar
    25    33    34   ar
    26    34    35   ar
    27    35    36   ar
    28    36    37    1
    29    37    38    1
    30    38    39    1
    31    12    13    1
    32    13    14    1
    33    14    15    2
    34    15    16    1
    35    16    17    1
    36    17    18    2
    37    16    19    1
    38    17     1   am
    39     8     3   ar
    40    19     9    1
    41    36    30   ar
    42    19    13    1
    43    39    35    1
    44    27    28    1
@<TRIPOS>MOLECULE
*****
 39 44 0 0 0
SMALL
GASTEIGER

@<TRIPOS>ATOM
      1 N          63.0573   84.3859   11.8442 N.am    1  UNL1       -0.2754
      2 C          62.2314   85.0414   10.7773 C.3     1  UNL1        0.1202
      3 C          61.7988   86.4476   10.4849 C.ar    1  UNL1        0.0005
      4 C          60.9765   86.3487    9.2343 C.ar    1  UNL1        0.0205
      5 C          60.3684   87.5829    8.6370 C.ar    1  UNL1        0.1524
      6 N          60.5825   88.9161    9.2903 N.ar    1  UNL1       -0.2399
      7 C          61.4047   89.0150   10.5409 C.ar    1  UNL1        0.0983
      8 C          62.0129   87.7808   11.1382 C.ar    1  UNL1        0.0188
      9 C          62.7483   88.2600   12.3546 C.2     1  UNL1        0.0527
     10 C          62.5208   89.7422   12.3870 C.2     1  UNL1        0.1911
     11 N          63.1191   90.5690   13.4862 N.2     1  UNL1       -0.0723
     12 C          63.9450   89.9135   14.5531 C.cat   1  UNL1        0.3804
     13 N          64.1725   88.4313   14.5207 N.pl3   1  UNL1       -0.1554
     14 C          64.9456   87.5438   15.4507 C.2     1  UNL1        0.2413
     15 N          64.8411   86.1365   14.9423 N.2     1  UNL1       -0.2277
     16 C          64.0068   86.1983   13.7139 C.3     1  UNL1        0.2204
     17 C          63.7927   84.8651   13.0606 C.2     1  UNL1        0.2519
     18 O          64.4738   83.7494   13.7963 O.2     1  UNL1       -0.2726
     19 C          63.5742   87.6045   13.4215 C.3     1  UNL1        0.1964
     20 C          59.5460   87.4840    7.3863 C.3     1  UNL1        0.4348
     21 F          58.7238   87.3851    6.1357 F       1  UNL1       -0.1644
     22 F          59.4872   85.9934    7.5429 F       1  UNL1       -0.1644
     23 F          59.6049   88.9746    7.2297 F       1  UNL1       -0.1644
     24 C          62.3417   81.9692   12.4747 C.3     1  UNL1        0.0215
     25 C          63.1755   82.9034   11.6489 C.3     1  UNL1        0.0758
     26 C          64.1277   82.3550   10.6276 C.3     1  UNL1        0.0215
     27 N          64.5434   90.7404   15.6524 N.pl3   1  UNL1       -0.2203
     28 H          64.5227   90.4139   16.5809 H       1  UNL1        0.2456
     29 C          65.1732   92.0647   15.3369 C.3     1  UNL1        0.1927
     30 C          66.5079   92.1168   14.6542 C.ar    1  UNL1        0.0412
     31 C          67.7681   92.0474   15.4648 C.ar    1  UNL1        0.1391
     32 F          67.6936   91.9259   16.9581 F       1  UNL1       -0.2044
     33 C          69.1027   92.0996   14.7823 C.ar    1  UNL1        0.0325
     34 C          69.1772   92.2211   13.2891 C.ar    1  UNL1        0.0389
     35 C          67.9170   92.2905   12.4785 C.ar    1  UNL1        0.1346
     36 C          66.5823   92.2383   13.1610 C.ar    1  UNL1        0.0168
     37 C          65.5189   92.3271   12.1069 C.3     1  UNL1        0.0766
     38 C          66.1962   92.4340   10.7729 C.3     1  UNL1        0.2101
     39 O          67.6784   92.4114   11.0025 O.3     1  UNL1       -0.4754
@<TRIPOS>BOND
     1    24    25    1
     2    25    26    1
     3    25     1    1
     4     1     2    1
     5     2     3    1
     6     3     4   ar
     7     4     5   ar
     8     5    20    1
     9    20    21    1
    10    20    22    1
    11    20    23    1
    12     5     6   ar
    13     6     7   ar
    14     7     8   ar
    15     8     9    1
    16     9    10    2
    17    10    11    1
    18    11    12    2
    19    12    27    1
    20    27    29    1
    21    29    30    1
    22    30    31   ar
    23    31    32    1
    24    31    33   ar
    25    33    34   ar
    26    34    35   ar
    27    35    36   ar
    28    36    37    1
    29    37    38    1
    30    38    39    1
    31    12    13    1
    32    13    14    1
    33    14    15    2
    34    15    16    1
    35    16    17    1
    36    17    18    2
    37    16    19    1
    38    17     1   am
    39     8     3   ar
    40    19     9    1
    41    36    30   ar
    42    19    13    1
    43    39    35    1
    44    27    28    1
@<TRIPOS>MOLECULE
*****
 39 44 0 0 0
SMALL
GASTEIGER

@<TRIPOS>ATOM
      1 N          63.1734   83.7529   12.9589 N.am    1  UNL1       -0.2754
      2 C          62.7505   83.9468   11.5328 C.3     1  UNL1        0.1202
      3 C          62.4821   85.1356   10.6583 C.ar    1  UNL1        0.0005
      4 C          62.0943   84.5598    9.3287 C.ar    1  UNL1        0.0205
      5 C          61.7497   85.4714    8.1884 C.ar    1  UNL1        0.1524
      6 N          61.7929   86.9587    8.3778 N.ar    1  UNL1       -0.2399
      7 C          62.1806   87.5346    9.7075 C.ar    1  UNL1        0.0983
      8 C          62.5252   86.6230   10.8477 C.ar    1  UNL1        0.0188
      9 C          62.8548   87.5377   11.9901 C.2     1  UNL1        0.0527
     10 C          62.6807   88.9227   11.4410 C.2     1  UNL1        0.1911
     11 N          62.9295   90.1138   12.3181 N.2     1  UNL1       -0.0723
     12 C          63.3524   89.9200   13.7441 C.cat   1  UNL1        0.3804
     13 N          63.5264   88.5350   14.2931 N.pl3   1  UNL1       -0.1554
     14 C          63.9343   88.0733   15.6608 C.2     1  UNL1        0.2413
     15 N          63.9467   86.5734   15.6592 N.2     1  UNL1       -0.2277
     16 C          63.5461   86.1550   14.2906 C.3     1  UNL1        0.2204
     17 C          63.5029   84.6676   14.1012 C.2     1  UNL1        0.2519
     18 O          63.8771   83.9194   15.3462 O.2     1  UNL1       -0.2726
     19 C          63.2776   87.3439   13.4161 C.3     1  UNL1        0.1964
     20 C          61.3619   84.8956    6.8587 C.3     1  UNL1        0.4348
     21 F          60.9742   84.3198    5.5290 F       1  UNL1       -0.1644
     22 F          62.7926   84.5256    6.6017 F       1  UNL1       -0.1644
     23 F          59.9312   85.2656    7.1156 F       1  UNL1       -0.1644
     24 C          62.1825   81.6236   14.0697 C.3     1  UNL1        0.0215
     25 C          63.2953   82.3046   13.3296 C.3     1  UNL1        0.0758
     26 C          64.5302   81.5373   12.9603 C.3     1  UNL1        0.0215
     27 N          63.6012   91.1112   14.6212 N.pl3   1  UNL1       -0.2203
     28 H          63.1788   91.1658   15.5088 H       1  UNL1        0.2456
     29 C          64.4936   92.2192   14.1458 C.3     1  UNL1        0.1927
     30 C          65.9343   92.2529   14.5623 C.ar    1  UNL1        0.0412
     31 C          66.2935   92.4523   16.0049 C.ar    1  UNL1        0.1391
     32 F          65.2120   92.6180   17.0311 F       1  UNL1       -0.2044
     33 C          67.7341   92.4860   16.4214 C.ar    1  UNL1        0.0325
     34 C          68.8155   92.3203   15.3953 C.ar    1  UNL1        0.0389
     35 C          68.4563   92.1209   13.9526 C.ar    1  UNL1        0.1346
     36 C          67.0157   92.0872   13.5361 C.ar    1  UNL1        0.0168
     37 C          66.9671   91.8763   12.0518 C.3     1  UNL1        0.0766
     38 C          68.3776   91.7797   11.5510 C.3     1  UNL1        0.2101
     39 O          69.2980   91.9309   12.7257 O.3     1  UNL1       -0.4754
@<TRIPOS>BOND
     1    24    25    1
     2    25    26    1
     3    25     1    1
     4     1     2    1
     5     2     3    1
     6     3     4   ar
     7     4     5   ar
     8     5    20    1
     9    20    21    1
    10    20    22    1
    11    20    23    1
    12     5     6   ar
    13     6     7   ar
    14     7     8   ar
    15     8     9    1
    16     9    10    2
    17    10    11    1
    18    11    12    2
    19    12    27    1
    20    27    29    1
    21    29    30    1
    22    30    31   ar
    23    31    32    1
    24    31    33   ar
    25    33    34   ar
    26    34    35   ar
    27    35    36   ar
    28    36    37    1
    29    37    38    1
    30    38    39    1
    31    12    13    1
    32    13    14    1
    33    14    15    2
    34    15    16    1
    35    16    17    1
    36    17    18    2
    37    16    19    1
    38    17     1   am
    39     8     3   ar
    40    19     9    1
    41    36    30   ar
    42    19    13    1
    43    39    35    1
    44    27    28    1
@<TRIPOS>MOLECULE
*****
 39 44 0 0 0
SMALL
GASTEIGER

@<TRIPOS>ATOM
      1 N          60.7859   86.4666    9.1625 N.am    1  UNL1       -0.2754
      2 C          61.2862   85.3060    9.9705 C.3     1  UNL1        0.1202
      3 C          62.1369   85.1556   11.1967 C.ar    1  UNL1        0.0005
      4 C          62.2188   83.6767   11.4334 C.ar    1  UNL1        0.0205
      5 C          63.0035   83.1456   12.5962 C.ar    1  UNL1        0.1524
      6 N          63.7063   84.0933   13.5223 N.ar    1  UNL1       -0.2399
      7 C          63.6245   85.5723   13.2857 C.ar    1  UNL1        0.0983
      8 C          62.8398   86.1034   12.1229 C.ar    1  UNL1        0.0188
      9 C          62.9830   87.5943   12.2064 C.2     1  UNL1        0.0527
     10 C          63.8418   87.8348   13.4124 C.2     1  UNL1        0.1911
     11 N          64.2003   89.2358   13.8105 N.2     1  UNL1       -0.0723
     12 C          63.7000   90.3964   13.0025 C.cat   1  UNL1        0.3804
     13 N          62.8412   90.1558   11.7964 N.pl3   1  UNL1       -0.1554
     14 C          62.2212   91.1242   10.8331 C.2     1  UNL1        0.2413
     15 N          61.4591   90.3361    9.8095 N.2     1  UNL1       -0.2277
     16 C          61.6319   88.9052   10.1721 C.3     1  UNL1        0.2204
     17 C          60.9291   87.9574    9.2460 C.2     1  UNL1        0.2519
     18 O          60.1979   88.6669    8.1451 O.2     1  UNL1       -0.2726
     19 C          62.4827   88.7548   11.3984 C.3     1  UNL1        0.1964
     20 C          63.0853   81.6666   12.8329 C.3     1  UNL1        0.4348
     21 F          63.1672   80.1876   13.0696 F       1  UNL1       -0.1644
     22 F          62.7112   81.4169   11.4020 F       1  UNL1       -0.1644
     23 F          63.4595   81.9163   14.2639 F       1  UNL1       -0.1644
     24 C          60.5515   85.2145    6.8981 C.3     1  UNL1        0.0215
     25 C          59.9451   86.0350    7.9977 C.3     1  UNL1        0.0758
     26 C          58.4979   86.4240    7.9324 C.3     1  UNL1        0.0215
     27 N          64.0586   91.7975   13.4005 N.pl3   1  UNL1       -0.2203
     28 H          63.6237   92.2146   14.1791 H       1  UNL1        0.2456
     29 C          65.0798   92.5630   12.6125 C.3     1  UNL1        0.1927
     30 C          66.5419   92.3341   12.8572 C.ar    1  UNL1        0.0412
     31 C          67.4497   91.9941   11.7125 C.ar    1  UNL1        0.1391
     32 F          66.8953   91.8830   10.3231 F       1  UNL1       -0.2044
     33 C          68.9118   91.7652   11.9571 C.ar    1  UNL1        0.0325
     34 C          69.4661   91.8763   13.3465 C.ar    1  UNL1        0.0389
     35 C          68.5583   92.2162   14.4912 C.ar    1  UNL1        0.1346
     36 C          67.0962   92.4451   14.2465 C.ar    1  UNL1        0.0168
     37 C          66.4504   92.7635   15.5624 C.3     1  UNL1        0.0766
     38 C          67.5132   92.7314   16.6203 C.3     1  UNL1        0.2101
     39 O          68.8160   92.3932   15.9582 O.3     1  UNL1       -0.4754
@<TRIPOS>BOND
     1    24    25    1
     2    25    26    1
     3    25     1    1
     4     1     2    1
     5     2     3    1
     6     3     4   ar
     7     4     5   ar
     8     5    20    1
     9    20    21    1
    10    20    22    1
    11    20    23    1
    12     5     6   ar
    13     6     7   ar
    14     7     8   ar
    15     8     9    1
    16     9    10    2
    17    10    11    1
    18    11    12    2
    19    12    27    1
    20    27    29    1
    21    29    30    1
    22    30    31   ar
    23    31    32    1
    24    31    33   ar
    25    33    34   ar
    26    34    35   ar
    27    35    36   ar
    28    36    37    1
    29    37    38    1
    30    38    39    1
    31    12    13    1
    32    13    14    1
    33    14    15    2
    34    15    16    1
    35    16    17    1
    36    17    18    2
    37    16    19    1
    38    17     1   am
    39     8     3   ar
    40    19     9    1
    41    36    30   ar
    42    19    13    1
    43    39    35    1
    44    27    28    1
@<TRIPOS>MOLECULE
*****
 39 44 0 0 0
SMALL
GASTEIGER

@<TRIPOS>ATOM
      1 N          63.6908   86.2260   13.6744 N.am    1  UNL1       -0.2754
      2 C          64.2295   87.5350   14.1707 C.3     1  UNL1        0.1202
      3 C          64.1020   88.9662   13.7400 C.ar    1  UNL1        0.0005
      4 C          64.9280   89.7423   14.7225 C.ar    1  UNL1        0.0205
      5 C          65.0350   91.2334   14.5997 C.ar    1  UNL1        0.1524
      6 N          64.3160   91.9484   13.4943 N.ar    1  UNL1       -0.2399
      7 C          63.4900   91.1723   12.5118 C.ar    1  UNL1        0.0983
      8 C          63.3830   89.6812   12.6347 C.ar    1  UNL1        0.0188
      9 C          62.4936   89.2612   11.5021 C.2     1  UNL1        0.0527
     10 C          62.1403   90.5349   10.7930 C.2     1  UNL1        0.1911
     11 N          61.2484   90.4996    9.5876 N.2     1  UNL1       -0.0723
     12 C          60.7097   89.1906    9.0913 C.cat   1  UNL1        0.3804
     13 N          61.0630   87.9169    9.8003 N.pl3   1  UNL1       -0.1554
     14 C          60.6643   86.4995    9.5138 C.2     1  UNL1        0.2413
     15 N          61.3068   85.6197   10.5449 N.2     1  UNL1       -0.2277
     16 C          62.0824   86.5209   11.4364 C.3     1  UNL1        0.2204
     17 C          62.8014   85.8059   12.5418 C.2     1  UNL1        0.2519
     18 O          62.5789   84.3230   12.5062 O.2     1  UNL1       -0.2726
     19 C          61.9549   87.9522   11.0057 C.3     1  UNL1        0.1964
     20 C          65.8610   92.0095   15.5822 C.3     1  UNL1        0.4348
     21 F          66.6871   92.7857   16.5647 F       1  UNL1       -0.1644
     22 F          67.0651   91.8399   14.7039 F       1  UNL1       -0.1644
     23 F          64.6570   92.1792   16.4605 F       1  UNL1       -0.1644
     24 C          63.3154   84.5936   15.6604 C.3     1  UNL1        0.0215
     25 C          64.1489   85.0645   14.5057 C.3     1  UNL1        0.0758
     26 C          65.4406   84.3739   14.1822 C.3     1  UNL1        0.0215
     27 N          59.8176   89.1553    7.8858 N.pl3   1  UNL1       -0.2203
     28 H          58.8500   89.0091    7.9935 H       1  UNL1        0.2456
     29 C          60.3999   89.3427    6.5162 C.3     1  UNL1        0.1927
     30 C          59.8290   90.3788    5.5938 C.ar    1  UNL1        0.0412
     31 C          58.3685   90.7152    5.6560 C.ar    1  UNL1        0.1391
     32 F          57.4789   90.0155    6.6405 F       1  UNL1       -0.2044
     33 C          57.7976   91.7513    4.7337 C.ar    1  UNL1        0.0325
     34 C          58.6871   92.4509    3.7493 C.ar    1  UNL1        0.0389
     35 C          60.1476   92.1145    3.6871 C.ar    1  UNL1        0.1346
     36 C          60.7185   91.0785    4.6094 C.ar    1  UNL1        0.0168
     37 C          62.1853   90.9578    4.3197 C.3     1  UNL1        0.0766
     38 C          62.5209   91.9192    3.2184 C.3     1  UNL1        0.2101
     39 O          61.2616   92.6341    2.8275 O.3     1  UNL1       -0.4754
@<TRIPOS>BOND
     1    24    25    1
     2    25    26    1
     3    25     1    1
     4     1     2    1
     5     2     3    1
     6     3     4   ar
     7     4     5   ar
     8     5    20    1
     9    20    21    1
    10    20    22    1
    11    20    23    1
    12     5     6   ar
    13     6     7   ar
    14     7     8   ar
    15     8     9    1
    16     9    10    2
    17    10    11    1
    18    11    12    2
    19    12    27    1
    20    27    29    1
    21    29    30    1
    22    30    31   ar
    23    31    32    1
    24    31    33   ar
    25    33    34   ar
    26    34    35   ar
    27    35    36   ar
    28    36    37    1
    29    37    38    1
    30    38    39    1
    31    12    13    1
    32    13    14    1
    33    14    15    2
    34    15    16    1
    35    16    17    1
    36    17    18    2
    37    16    19    1
    38    17     1   am
    39     8     3   ar
    40    19     9    1
    41    36    30   ar
    42    19    13    1
    43    39    35    1
    44    27    28    1
