@<TRIPOS>MOLECULE
*****
 27 30 0 0 0
SMALL
GASTEIGER

@<TRIPOS>ATOM
      1 C          63.3420   81.8719   12.2471 C.2     1  UNL1        0.0919
      2 C          63.6044   81.3677   13.6352 C.2     1  UNL1        0.0183
      3 C          63.7989   82.3389   14.7617 C.2     1  UNL1        0.0511
      4 C          63.7310   83.8143   14.5001 C.2     1  UNL1        0.2322
      5 N          63.8816   85.0019   15.4039 N.2     1  UNL1       -0.0308
      6 C          63.7123   86.2401   14.5743 C.2     1  UNL1        0.3752
      7 N          63.4570   85.8178   13.1578 N.2     1  UNL1       -0.0347
      8 C          63.4686   84.3185   13.1120 C.2     1  UNL1        0.2191
      9 C          63.2741   83.3473   11.9855 C.3     1  UNL1        0.1226
     10 C          63.7854   87.6528   15.0737 C.ar    1  UNL1        0.0884
     11 C          63.1769   88.0130   16.3966 C.ar    1  UNL1        0.0074
     12 C          63.2500   89.4255   16.8959 C.ar    1  UNL1       -0.0040
     13 C          63.9315   90.4778   16.0724 C.ar    1  UNL1       -0.0218
     14 C          64.0046   91.8904   16.5717 C.3     1  UNL1        0.0310
     15 C          64.5399   90.1175   14.7495 C.ar    1  UNL1       -0.0037
     16 C          64.4668   88.7050   14.2501 C.ar    1  UNL1        0.0074
     17 C          65.2214   91.1699   13.9259 C.ar    1  UNL1       -0.0003
     18 C          64.5670   91.6871   12.6793 C.ar    1  UNL1       -0.0000
     19 C          65.2486   92.7394   11.8558 C.ar    1  UNL1       -0.0000
     20 C          66.5844   93.2745   12.2790 C.ar    1  UNL1       -0.0000
     21 C          67.2388   92.7573   13.5257 C.ar    1  UNL1       -0.0000
     22 C          66.5573   91.7050   14.3491 C.ar    1  UNL1       -0.0000
     23 S          63.1475   80.9007   11.1207 S.O2    1  UNL1        0.0054
     24 O          62.6097   79.8874   12.0871 O.2     1  UNL1       -0.1689
     25 O          63.6854   81.9139   10.1542 O.2     1  UNL1       -0.1689
     26 C          62.6812   78.4840   10.2887 C.3     1  UNL1        0.0276
     27 C          62.9530   79.9295    9.9942 C.3     1  UNL1        0.1556
@<TRIPOS>BOND
     1    26    27    1
     2    27    23    1
     3    23    24    2
     4    23    25    2
     5    23     1    1
     6     1     2    2
     7     2     3    1
     8     3     4    2
     9     4     5    1
    10     5     6    2
    11     6    10    1
    12    10    11   ar
    13    11    12   ar
    14    12    13   ar
    15    13    14    1
    16    13    15   ar
    17    15    17    1
    18    17    18   ar
    19    18    19   ar
    20    19    20   ar
    21    20    21   ar
    22    21    22   ar
    23    15    16   ar
    24     6     7    1
    25     7     8    2
    26     8     9    1
    27     9     1    1
    28     8     4    1
    29    16    10   ar
    30    22    17   ar
@<TRIPOS>MOLECULE
*****
 27 30 0 0 0
SMALL
GASTEIGER

@<TRIPOS>ATOM
      1 C          66.6651   92.5772   14.0512 C.2     1  UNL1        0.0919
      2 C          66.6278   93.5090   12.8764 C.2     1  UNL1        0.0183
      3 C          65.6667   93.2602   11.7520 C.2     1  UNL1        0.0511
      4 C          64.7428   92.0796   11.8024 C.2     1  UNL1        0.2322
      5 N          63.6962   91.5826   10.8496 N.2     1  UNL1       -0.0308
      6 C          63.0867   90.3437   11.4357 C.2     1  UNL1        0.3752
      7 N          63.7565   90.0749   12.7506 N.2     1  UNL1       -0.0347
      8 C          64.7801   91.1478   12.9772 C.2     1  UNL1        0.2191
      9 C          65.7412   91.3966   14.1016 C.3     1  UNL1        0.1226
     10 C          61.9983   89.5184   10.8156 C.ar    1  UNL1        0.0884
     11 C          60.5607   89.8333   11.1054 C.ar    1  UNL1        0.0074
     12 C          59.4723   89.0081   10.4853 C.ar    1  UNL1       -0.0040
     13 C          59.8217   87.8679    9.5755 C.ar    1  UNL1       -0.0218
     14 C          58.7333   87.0427    8.9554 C.3     1  UNL1        0.0310
     15 C          61.2593   87.5530    9.2856 C.ar    1  UNL1       -0.0037
     16 C          62.3476   88.3782    9.9057 C.ar    1  UNL1        0.0074
     17 C          61.6086   86.4127    8.3757 C.ar    1  UNL1       -0.0003
     18 C          62.9312   85.7193    8.5159 C.ar    1  UNL1       -0.0000
     19 C          63.2804   84.5791    7.6060 C.ar    1  UNL1       -0.0000
     20 C          62.3070   84.1323    6.5559 C.ar    1  UNL1       -0.0000
     21 C          60.9843   84.8257    6.4157 C.ar    1  UNL1       -0.0000
     22 C          60.6351   85.9659    7.3256 C.ar    1  UNL1       -0.0000
     23 S          67.6262   92.8260   15.1756 S.O2    1  UNL1        0.0054
     24 O          66.4842   92.8426   16.1481 O.2     1  UNL1       -0.1689
     25 O          68.7682   92.8094   14.2032 O.2     1  UNL1       -0.1689
     26 C          69.4900   94.2722   16.2640 C.3     1  UNL1        0.0276
     27 C          68.5873   93.0748   16.3001 C.3     1  UNL1        0.1556
@<TRIPOS>BOND
     1    26    27    1
     2    27    23    1
     3    23    24    2
     4    23    25    2
     5    23     1    1
     6     1     2    2
     7     2     3    1
     8     3     4    2
     9     4     5    1
    10     5     6    2
    11     6    10    1
    12    10    11   ar
    13    11    12   ar
    14    12    13   ar
    15    13    14    1
    16    13    15   ar
    17    15    17    1
    18    17    18   ar
    19    18    19   ar
    20    19    20   ar
    21    20    21   ar
    22    21    22   ar
    23    15    16   ar
    24     6     7    1
    25     7     8    2
    26     8     9    1
    27     9     1    1
    28     8     4    1
    29    16    10   ar
    30    22    17   ar
@<TRIPOS>MOLECULE
*****
 27 30 0 0 0
SMALL
GASTEIGER

@<TRIPOS>ATOM
      1 C          62.6051   84.1432   13.3128 C.2     1  UNL1        0.0919
      2 C          61.9958   84.6531   12.0406 C.2     1  UNL1        0.0183
      3 C          62.2074   86.0792   11.6266 C.2     1  UNL1        0.0511
      4 C          63.0283   86.9955   12.4848 C.2     1  UNL1        0.2322
      5 N          63.4070   88.4392   12.3356 N.2     1  UNL1       -0.0308
      6 C          64.2503   88.8215   13.5157 C.2     1  UNL1        0.3752
      7 N          64.3929   87.6142   14.3942 N.2     1  UNL1       -0.0347
      8 C          63.6376   86.4855   13.7570 C.2     1  UNL1        0.2191
      9 C          63.4260   85.0594   14.1711 C.3     1  UNL1        0.1226
     10 C          64.8465   90.1740   13.7721 C.ar    1  UNL1        0.0884
     11 C          64.9401   90.6986   15.1743 C.ar    1  UNL1        0.0074
     12 C          65.5362   92.0510   15.4308 C.ar    1  UNL1       -0.0040
     13 C          66.0387   92.8786   14.2851 C.ar    1  UNL1       -0.0218
     14 C          66.6348   94.2310   14.5416 C.3     1  UNL1        0.0310
     15 C          65.9450   92.3539   12.8830 C.ar    1  UNL1       -0.0037
     16 C          65.3489   91.0016   12.6265 C.ar    1  UNL1        0.0074
     17 C          66.4475   93.1816   11.7374 C.ar    1  UNL1       -0.0003
     18 C          67.3209   92.5592   10.6887 C.ar    1  UNL1       -0.0000
     19 C          67.8234   93.3869    9.5432 C.ar    1  UNL1       -0.0000
     20 C          67.4524   94.8371    9.4462 C.ar    1  UNL1       -0.0000
     21 C          66.5790   95.4595   10.4949 C.ar    1  UNL1       -0.0000
     22 C          66.0766   94.6318   11.6404 C.ar    1  UNL1       -0.0000
     23 S          62.3935   82.7171   13.7269 S.O2    1  UNL1        0.0054
     24 O          62.3961   83.1349   15.1675 O.2     1  UNL1       -0.1689
     25 O          62.3909   82.2993   12.2862 O.2     1  UNL1       -0.1689
     26 C          60.7973   80.7148   14.1657 C.3     1  UNL1        0.0276
     27 C          62.1819   81.2910   14.1409 C.3     1  UNL1        0.1556
@<TRIPOS>BOND
     1    26    27    1
     2    27    23    1
     3    23    24    2
     4    23    25    2
     5    23     1    1
     6     1     2    2
     7     2     3    1
     8     3     4    2
     9     4     5    1
    10     5     6    2
    11     6    10    1
    12    10    11   ar
    13    11    12   ar
    14    12    13   ar
    15    13    14    1
    16    13    15   ar
    17    15    17    1
    18    17    18   ar
    19    18    19   ar
    20    19    20   ar
    21    20    21   ar
    22    21    22   ar
    23    15    16   ar
    24     6     7    1
    25     7     8    2
    26     8     9    1
    27     9     1    1
    28     8     4    1
    29    16    10   ar
    30    22    17   ar
@<TRIPOS>MOLECULE
*****
 27 30 0 0 0
SMALL
GASTEIGER

@<TRIPOS>ATOM
      1 C          62.5778   82.8979   14.2305 C.2     1  UNL1        0.0919
      2 C          62.7813   83.2324   15.6784 C.2     1  UNL1        0.0183
      3 C          63.1862   84.6204   16.0778 C.2     1  UNL1        0.0511
      4 C          63.3877   85.6739   15.0291 C.2     1  UNL1        0.2322
      5 N          63.7835   87.1178   15.1200 N.2     1  UNL1       -0.0308
      6 C          63.8246   87.6757   13.7282 C.2     1  UNL1        0.3752
      7 N          63.4542   86.5765   12.7771 N.2     1  UNL1       -0.0347
      8 C          63.1841   85.3393   13.5812 C.2     1  UNL1        0.2191
      9 C          62.7792   83.9513   13.1819 C.3     1  UNL1        0.1226
     10 C          64.1748   89.0853   13.3533 C.ar    1  UNL1        0.0884
     11 C          63.4175   89.7811   12.2614 C.ar    1  UNL1        0.0074
     12 C          63.7675   91.1906   11.8865 C.ar    1  UNL1       -0.0040
     13 C          64.8749   91.9044   12.6036 C.ar    1  UNL1       -0.0218
     14 C          65.2250   93.3140   12.2287 C.3     1  UNL1        0.0310
     15 C          65.6322   91.2086   13.6955 C.ar    1  UNL1       -0.0037
     16 C          65.2821   89.7991   14.0704 C.ar    1  UNL1        0.0074
     17 C          66.7396   91.9225   14.4126 C.ar    1  UNL1       -0.0003
     18 C          68.1398   91.8635   13.8779 C.ar    1  UNL1       -0.0000
     19 C          69.2471   92.5773   14.5950 C.ar    1  UNL1       -0.0000
     20 C          68.9542   93.3501   15.8468 C.ar    1  UNL1       -0.0000
     21 C          67.5540   93.4091   16.3815 C.ar    1  UNL1       -0.0000
     22 C          66.4467   92.6953   15.6644 C.ar    1  UNL1       -0.0000
     23 S          62.1728   81.5098   13.8312 S.O2    1  UNL1        0.0054
     24 O          63.4410   81.3666   13.0430 O.2     1  UNL1       -0.1689
     25 O          60.9046   81.6531   14.6193 O.2     1  UNL1       -0.1689
     26 C          62.5455   79.3869   12.3807 C.3     1  UNL1        0.0276
     27 C          61.7679   80.1218   13.4318 C.3     1  UNL1        0.1556
@<TRIPOS>BOND
     1    26    27    1
     2    27    23    1
     3    23    24    2
     4    23    25    2
     5    23     1    1
     6     1     2    2
     7     2     3    1
     8     3     4    2
     9     4     5    1
    10     5     6    2
    11     6    10    1
    12    10    11   ar
    13    11    12   ar
    14    12    13   ar
    15    13    14    1
    16    13    15   ar
    17    15    17    1
    18    17    18   ar
    19    18    19   ar
    20    19    20   ar
    21    20    21   ar
    22    21    22   ar
    23    15    16   ar
    24     6     7    1
    25     7     8    2
    26     8     9    1
    27     9     1    1
    28     8     4    1
    29    16    10   ar
    30    22    17   ar
@<TRIPOS>MOLECULE
*****
 27 30 0 0 0
SMALL
GASTEIGER

@<TRIPOS>ATOM
      1 C          62.7635   81.4433   12.6629 C.2     1  UNL1        0.0919
      2 C          62.7591   81.6362   14.1504 C.2     1  UNL1        0.0183
      3 C          62.8810   83.0151   14.7283 C.2     1  UNL1        0.0511
      4 C          63.0073   84.2010   13.8187 C.2     1  UNL1        0.2322
      5 N          63.1422   85.6689   14.0961 N.2     1  UNL1       -0.0308
      6 C          63.2299   86.3833   12.7801 C.2     1  UNL1        0.3752
      7 N          63.1493   85.3569   11.6892 N.2     1  UNL1       -0.0347
      8 C          63.0117   84.0082   12.3312 C.2     1  UNL1        0.2191
      9 C          62.8898   82.6293   11.7533 C.3     1  UNL1        0.1226
     10 C          63.3732   87.8642   12.5885 C.ar    1  UNL1        0.0884
     11 C          62.7353   88.5328   11.4070 C.ar    1  UNL1        0.0074
     12 C          62.8786   90.0135   11.2154 C.ar    1  UNL1       -0.0040
     13 C          63.6597   90.8257   12.2054 C.ar    1  UNL1       -0.0218
     14 C          63.8030   92.3066   12.0139 C.3     1  UNL1        0.0310
     15 C          64.2976   90.1571   13.3870 C.ar    1  UNL1       -0.0037
     16 C          64.1543   88.6764   13.5785 C.ar    1  UNL1        0.0074
     17 C          65.0787   90.9694   14.3770 C.ar    1  UNL1       -0.0003
     18 C          64.4183   91.4617   15.6306 C.ar    1  UNL1       -0.0000
     19 C          65.1994   92.2739   16.6205 C.ar    1  UNL1       -0.0000
     20 C          66.6410   92.5939   16.3569 C.ar    1  UNL1       -0.0000
     21 C          67.3014   92.1017   15.1033 C.ar    1  UNL1       -0.0000
     22 C          66.5203   91.2894   14.1134 C.ar    1  UNL1       -0.0000
     23 S          62.6416   80.0645   12.0851 S.O2    1  UNL1        0.0054
     24 O          63.0271   80.5957   10.7363 O.2     1  UNL1       -0.1689
     25 O          62.2562   79.5333   13.4339 O.2     1  UNL1       -0.1689
     26 C          62.7752   78.4593   10.0466 C.3     1  UNL1        0.0276
     27 C          62.5198   78.6857   11.5072 C.3     1  UNL1        0.1556
@<TRIPOS>BOND
     1    26    27    1
     2    27    23    1
     3    23    24    2
     4    23    25    2
     5    23     1    1
     6     1     2    2
     7     2     3    1
     8     3     4    2
     9     4     5    1
    10     5     6    2
    11     6    10    1
    12    10    11   ar
    13    11    12   ar
    14    12    13   ar
    15    13    14    1
    16    13    15   ar
    17    15    17    1
    18    17    18   ar
    19    18    19   ar
    20    19    20   ar
    21    20    21   ar
    22    21    22   ar
    23    15    16   ar
    24     6     7    1
    25     7     8    2
    26     8     9    1
    27     9     1    1
    28     8     4    1
    29    16    10   ar
    30    22    17   ar
@<TRIPOS>MOLECULE
*****
 27 30 0 0 0
SMALL
GASTEIGER

@<TRIPOS>ATOM
      1 C          59.3035   89.7824    6.5475 C.2     1  UNL1        0.0919
      2 C          58.6167   88.4532    6.4409 C.2     1  UNL1        0.0183
      3 C          58.9530   87.3557    7.4066 C.2     1  UNL1        0.0511
      4 C          59.9761   87.5874    8.4787 C.2     1  UNL1        0.2322
      5 N          60.5103   86.7013    9.5647 N.2     1  UNL1       -0.0308
      6 C          61.5273   87.4829   10.3424 C.2     1  UNL1        0.3752
      7 N          61.6216   88.8521    9.7371 N.2     1  UNL1       -0.0347
      8 C          60.6629   88.9166    8.5852 C.2     1  UNL1        0.2191
      9 C          60.3266   90.0141    7.6196 C.3     1  UNL1        0.1226
     10 C          62.3122   86.9830   11.5190 C.ar    1  UNL1        0.0884
     11 C          63.0733   87.9490   12.3778 C.ar    1  UNL1        0.0074
     12 C          63.8582   87.4492   13.5543 C.ar    1  UNL1       -0.0040
     13 C          63.8819   85.9834   13.8719 C.ar    1  UNL1       -0.0218
     14 C          64.6668   85.4836   15.0485 C.3     1  UNL1        0.0310
     15 C          63.1208   85.0175   13.0131 C.ar    1  UNL1       -0.0037
     16 C          62.3359   85.5173   11.8366 C.ar    1  UNL1        0.0074
     17 C          63.1445   83.5516   13.3308 C.ar    1  UNL1       -0.0003
     18 C          62.0848   82.9576   14.2105 C.ar    1  UNL1       -0.0000
     19 C          62.1086   81.4919   14.5282 C.ar    1  UNL1       -0.0000
     20 C          63.1921   80.6201   13.9661 C.ar    1  UNL1       -0.0000
     21 C          64.2519   81.2141   13.0863 C.ar    1  UNL1       -0.0000
     22 C          64.2281   82.6799   12.7687 C.ar    1  UNL1       -0.0000
     23 S          58.9672   90.8799    5.5819 S.O2    1  UNL1        0.0054
     24 O          57.5137   90.7348    5.9232 O.2     1  UNL1       -0.1689
     25 O          60.4206   91.0250    5.2405 O.2     1  UNL1       -0.1689
     26 C          59.7038   92.5714    3.7526 C.3     1  UNL1        0.0276
     27 C          58.6309   91.9774    4.6163 C.3     1  UNL1        0.1556
@<TRIPOS>BOND
     1    26    27    1
     2    27    23    1
     3    23    24    2
     4    23    25    2
     5    23     1    1
     6     1     2    2
     7     2     3    1
     8     3     4    2
     9     4     5    1
    10     5     6    2
    11     6    10    1
    12    10    11   ar
    13    11    12   ar
    14    12    13   ar
    15    13    14    1
    16    13    15   ar
    17    15    17    1
    18    17    18   ar
    19    18    19   ar
    20    19    20   ar
    21    20    21   ar
    22    21    22   ar
    23    15    16   ar
    24     6     7    1
    25     7     8    2
    26     8     9    1
    27     9     1    1
    28     8     4    1
    29    16    10   ar
    30    22    17   ar
@<TRIPOS>MOLECULE
*****
 27 30 0 0 0
SMALL
GASTEIGER

@<TRIPOS>ATOM
      1 C          62.7638   84.0353   14.2794 C.2     1  UNL1        0.0919
      2 C          62.4866   84.2555   15.7370 C.2     1  UNL1        0.0183
      3 C          62.8140   85.5745   16.3719 C.2     1  UNL1        0.0511
      4 C          63.4188   86.6733   15.5491 C.2     1  UNL1        0.2322
      5 N          63.8450   88.0689   15.8964 N.2     1  UNL1       -0.0308
      6 C          64.3857   88.7113   14.6534 C.2     1  UNL1        0.3752
      7 N          64.2936   87.7127   13.5379 N.2     1  UNL1       -0.0347
      8 C          63.6960   86.4531   14.0916 C.2     1  UNL1        0.2191
      9 C          63.3686   85.1341   13.4567 C.3     1  UNL1        0.1226
     10 C          64.9239   90.1072   14.5449 C.ar    1  UNL1        0.0884
     11 C          64.9246   91.0061   15.7457 C.ar    1  UNL1        0.0074
     12 C          65.4628   92.4020   15.6373 C.ar    1  UNL1       -0.0040
     13 C          66.0003   92.8990   14.3281 C.ar    1  UNL1       -0.0218
     14 C          66.5385   94.2950   14.2197 C.3     1  UNL1        0.0310
     15 C          65.9995   92.0001   13.1273 C.ar    1  UNL1       -0.0037
     16 C          65.4613   90.6042   13.2357 C.ar    1  UNL1        0.0074
     17 C          66.5370   92.4972   11.8180 C.ar    1  UNL1       -0.0003
     18 C          65.8108   93.5755   11.0700 C.ar    1  UNL1       -0.0000
     19 C          66.3483   94.0725    9.7608 C.ar    1  UNL1       -0.0000
     20 C          67.6120   93.4912    9.1996 C.ar    1  UNL1       -0.0000
     21 C          68.3383   92.4128    9.9477 C.ar    1  UNL1       -0.0000
     22 C          67.8008   91.9158   11.2568 C.ar    1  UNL1       -0.0000
     23 S          62.4364   82.7163   13.6446 S.O2    1  UNL1        0.0054
     24 O          62.3535   82.0835   15.0020 O.2     1  UNL1       -0.1689
     25 O          62.5192   83.3492   12.2871 O.2     1  UNL1       -0.1689
     26 C          62.9059   80.9118   11.8354 C.3     1  UNL1        0.0276
     27 C          62.1089   81.3974   13.0097 C.3     1  UNL1        0.1556
@<TRIPOS>BOND
     1    26    27    1
     2    27    23    1
     3    23    24    2
     4    23    25    2
     5    23     1    1
     6     1     2    2
     7     2     3    1
     8     3     4    2
     9     4     5    1
    10     5     6    2
    11     6    10    1
    12    10    11   ar
    13    11    12   ar
    14    12    13   ar
    15    13    14    1
    16    13    15   ar
    17    15    17    1
    18    17    18   ar
    19    18    19   ar
    20    19    20   ar
    21    20    21   ar
    22    21    22   ar
    23    15    16   ar
    24     6     7    1
    25     7     8    2
    26     8     9    1
    27     9     1    1
    28     8     4    1
    29    16    10   ar
    30    22    17   ar
@<TRIPOS>MOLECULE
*****
 27 30 0 0 0
SMALL
GASTEIGER

@<TRIPOS>ATOM
      1 C          66.3401   92.5538   15.3777 C.2     1  UNL1        0.0919
      2 C          65.2635   92.3641   16.4048 C.2     1  UNL1        0.0183
      3 C          64.0972   91.4674   16.1121 C.2     1  UNL1        0.0511
      4 C          64.0076   90.7602   14.7923 C.2     1  UNL1        0.2322
      5 N          62.9853   89.8209   14.2243 N.2     1  UNL1       -0.0308
      6 C          63.4301   89.4300   12.8461 C.2     1  UNL1        0.3752
      7 N          64.7273   90.1277   12.5624 N.2     1  UNL1       -0.0347
      8 C          65.0842   90.9498   13.7652 C.2     1  UNL1        0.2191
      9 C          66.2504   91.8466   14.0579 C.3     1  UNL1        0.1226
     10 C          62.7050   88.5039   11.9151 C.ar    1  UNL1        0.0884
     11 C          61.6250   89.0348   11.0197 C.ar    1  UNL1        0.0074
     12 C          60.8999   88.1089   10.0888 C.ar    1  UNL1       -0.0040
     13 C          61.2547   86.6519   10.0533 C.ar    1  UNL1       -0.0218
     14 C          60.5296   85.7258    9.1223 C.3     1  UNL1        0.0310
     15 C          62.3347   86.1209   10.9487 C.ar    1  UNL1       -0.0037
     16 C          63.0598   87.0469   11.8796 C.ar    1  UNL1        0.0074
     17 C          62.6895   84.6639   10.9131 C.ar    1  UNL1       -0.0003
     18 C          62.1695   83.7392   11.9735 C.ar    1  UNL1       -0.0000
     19 C          62.5244   82.2823   11.9379 C.ar    1  UNL1       -0.0000
     20 C          63.3992   81.7500   10.8419 C.ar    1  UNL1       -0.0000
     21 C          63.9192   82.6746    9.7815 C.ar    1  UNL1       -0.0000
     22 C          63.5644   84.1316    9.8171 C.ar    1  UNL1       -0.0000
     23 S          67.5063   93.4506   15.6703 S.O2    1  UNL1        0.0054
     24 O          67.9843   92.4875   16.7163 O.2     1  UNL1       -0.1689
     25 O          67.0283   94.4136   14.6244 O.2     1  UNL1       -0.1689
     26 C          70.0451   93.7643   16.1241 C.3     1  UNL1        0.0276
     27 C          68.6725   94.3473   15.9630 C.3     1  UNL1        0.1556
@<TRIPOS>BOND
     1    26    27    1
     2    27    23    1
     3    23    24    2
     4    23    25    2
     5    23     1    1
     6     1     2    2
     7     2     3    1
     8     3     4    2
     9     4     5    1
    10     5     6    2
    11     6    10    1
    12    10    11   ar
    13    11    12   ar
    14    12    13   ar
    15    13    14    1
    16    13    15   ar
    17    15    17    1
    18    17    18   ar
    19    18    19   ar
    20    19    20   ar
    21    20    21   ar
    22    21    22   ar
    23    15    16   ar
    24     6     7    1
    25     7     8    2
    26     8     9    1
    27     9     1    1
    28     8     4    1
    29    16    10   ar
    30    22    17   ar
@<TRIPOS>MOLECULE
*****
 27 30 0 0 0
SMALL
GASTEIGER

@<TRIPOS>ATOM
      1 C          65.3202   92.0184   14.3602 C.2     1  UNL1        0.0919
      2 C          64.4577   91.3611   15.3965 C.2     1  UNL1        0.0183
      3 C          63.3299   90.4661   14.9758 C.2     1  UNL1        0.0511
      4 C          63.0646   90.2284   13.5188 C.2     1  UNL1        0.2322
      5 N          62.0332   89.4033   12.8079 N.2     1  UNL1       -0.0308
      6 C          62.2582   89.5506   11.3322 C.2     1  UNL1        0.3752
      7 N          63.4288   90.4667   11.1310 N.2     1  UNL1       -0.0347
      8 C          63.9271   90.8856   12.4824 C.2     1  UNL1        0.2191
      9 C          65.0549   91.7806   12.9031 C.3     1  UNL1        0.1226
     10 C          61.4539   88.8965   10.2480 C.ar    1  UNL1        0.0884
     11 C          61.1533   87.4287   10.3189 C.ar    1  UNL1        0.0074
     12 C          60.3490   86.7746    9.2348 C.ar    1  UNL1       -0.0040
     13 C          59.8453   87.5884    8.0799 C.ar    1  UNL1       -0.0218
     14 C          59.0410   86.9343    6.9957 C.3     1  UNL1        0.0310
     15 C          60.1459   89.0563    8.0090 C.ar    1  UNL1       -0.0037
     16 C          60.9502   89.7103    9.0931 C.ar    1  UNL1        0.0074
     17 C          59.6422   89.8701    6.8540 C.ar    1  UNL1       -0.0003
     18 C          58.1672   90.0540    6.6528 C.ar    1  UNL1       -0.0000
     19 C          57.6635   90.8677    5.4978 C.ar    1  UNL1       -0.0000
     20 C          58.6348   91.4976    4.5440 C.ar    1  UNL1       -0.0000
     21 C          60.1098   91.3137    4.7452 C.ar    1  UNL1       -0.0000
     22 C          60.6135   90.5000    5.9001 C.ar    1  UNL1       -0.0000
     23 S          66.4480   92.9134   14.7809 S.O2    1  UNL1        0.0054
     24 O          66.0925   92.6849   16.2201 O.2     1  UNL1       -0.1689
     25 O          66.8036   93.1419   13.3417 O.2     1  UNL1       -0.1689
     26 C          68.9285   93.2266   15.4875 C.3     1  UNL1        0.0276
     27 C          67.5758   93.8084   15.2016 C.3     1  UNL1        0.1556
@<TRIPOS>BOND
     1    26    27    1
     2    27    23    1
     3    23    24    2
     4    23    25    2
     5    23     1    1
     6     1     2    2
     7     2     3    1
     8     3     4    2
     9     4     5    1
    10     5     6    2
    11     6    10    1
    12    10    11   ar
    13    11    12   ar
    14    12    13   ar
    15    13    14    1
    16    13    15   ar
    17    15    17    1
    18    17    18   ar
    19    18    19   ar
    20    19    20   ar
    21    20    21   ar
    22    21    22   ar
    23    15    16   ar
    24     6     7    1
    25     7     8    2
    26     8     9    1
    27     9     1    1
    28     8     4    1
    29    16    10   ar
    30    22    17   ar
