@<TRIPOS>MOLECULE
*****
 26 29 0 0 0
SMALL
GASTEIGER

@<TRIPOS>ATOM
      1 C          63.7702   83.0285   12.6420 C.2     1  UNL1        0.0958
      2 C          64.6689   82.2010   11.7717 C.2     1  UNL1        0.1049
      3 N          64.5586   82.7176   10.3678 N.2     1  UNL1       -0.2475
      4 C          63.5916   83.8643   10.3705 C.2     1  UNL1        0.0668
      5 C          63.0919   84.7583    9.2746 C.3     1  UNL1        0.1098
      6 C          62.1049   85.8445    9.5843 C.2     1  UNL1        0.1302
      7 C          61.6176   86.0367   10.9899 C.2     1  UNL1        0.0331
      8 C          62.1173   85.1427   12.0857 C.2     1  UNL1        0.0042
      9 C          63.1043   84.0565   11.7760 C.2     1  UNL1        0.0218
     10 O          62.5912   81.8460   14.6324 O.2     1  UNL1       -0.2448
     11 C          63.5720   82.8580   14.1191 C.2     1  UNL1        0.3428
     12 O          64.3548   83.6997   15.0830 O.3     1  UNL1       -0.4454
     13 C          64.8264   85.0642   14.6757 C.3     1  UNL1        0.2087
     14 C          64.2389   86.2842   15.3209 C.3     1  UNL1        0.0445
     15 C          63.4805   86.1599   16.6091 C.3     1  UNL1        0.0210
     16 C          62.8930   87.3800   17.2542 C.3     1  UNL1        0.0722
     17 N          63.0640   88.7245   16.6113 N.3     1  UNL1       -0.2727
     18 C          63.8224   88.8488   15.3232 C.3     1  UNL1        0.0722
     19 C          64.4099   87.6286   14.6779 C.3     1  UNL1        0.0210
     20 C          63.4039   88.0844   16.2204 C.3     1  UNL1        0.0722
     21 C          63.9351   86.9813   15.6369 C.3     1  UNL1        0.0210
     22 O          61.6051   86.7386    8.4884 O.2     1  UNL1       -0.4085
     23 C          60.1500   86.7370    8.1242 C.3     1  UNL1        0.5750
     24 F          58.6949   86.7354    7.7599 F       1  UNL1       -0.1328
     25 F          59.9750   88.0557    8.8172 F       1  UNL1       -0.1328
     26 F          60.3249   85.4183    7.4311 F       1  UNL1       -0.1328
@<TRIPOS>BOND
     1    10    11    2
     2    11    12    1
     3    12    13    1
     4    13    14    1
     5    14    15    1
     6    15    16    1
     7    16    17    1
     8    17    18    1
     9    18    19    1
    10    17    20    1
    11    20    21    1
    12    11     1    1
    13     1     2    2
    14     2     3    1
    15     3     4    2
    16     4     5    1
    17     5     6    1
    18     6    22    1
    19    22    23    1
    20    23    24    1
    21    23    25    1
    22    23    26    1
    23     6     7    2
    24     7     8    1
    25     8     9    2
    26    19    14    1
    27     9     1    1
    28    21    14    1
    29     9     4    1
@<TRIPOS>MOLECULE
*****
 26 29 0 0 0
SMALL
GASTEIGER

@<TRIPOS>ATOM
      1 C          63.6390   83.7099   13.1163 C.2     1  UNL1        0.0958
      2 C          64.5153   82.5627   12.7089 C.2     1  UNL1        0.1049
      3 N          64.5746   82.5344   11.2103 N.2     1  UNL1       -0.2475
      4 C          63.7351   83.6640   10.6916 C.2     1  UNL1        0.0668
      5 C          63.4224   84.1249    9.2989 C.3     1  UNL1        0.1098
      6 C          62.5315   85.3124    9.0842 C.2     1  UNL1        0.1302
      7 C          61.9532   86.0390   10.2622 C.2     1  UNL1        0.0331
      8 C          62.2659   85.5780   11.6549 C.2     1  UNL1        0.0042
      9 C          63.1568   84.3906   11.8697 C.2     1  UNL1        0.0218
     10 O          63.1859   83.0592   15.5905 O.2     1  UNL1       -0.2448
     11 C          63.3037   84.1068   14.5235 C.2     1  UNL1        0.3428
     12 O          63.0863   85.5516   14.8637 O.3     1  UNL1       -0.4454
     13 C          64.2496   86.4979   14.8955 C.3     1  UNL1        0.2087
     14 C          64.0127   87.9734   15.0244 C.3     1  UNL1        0.0445
     15 C          63.4908   88.5397   16.3116 C.3     1  UNL1        0.0210
     16 C          63.2540   90.0153   16.4404 C.3     1  UNL1        0.0722
     17 N          63.5389   90.9246   15.2820 N.3     1  UNL1       -0.2727
     18 C          64.0608   90.3584   13.9948 C.3     1  UNL1        0.0722
     19 C          64.2977   88.8827   13.8660 C.3     1  UNL1        0.0210
     20 C          63.6844   90.1228   15.1640 C.3     1  UNL1        0.0722
     21 C          63.8986   88.7886   15.0474 C.3     1  UNL1        0.0210
     22 O          62.2188   85.7734    7.6914 O.2     1  UNL1       -0.4085
     23 C          61.5590   84.8379    6.7222 C.3     1  UNL1        0.5750
     24 F          60.8991   83.9023    5.7529 F       1  UNL1       -0.1328
     25 F          60.2226   85.1568    7.3242 F       1  UNL1       -0.1328
     26 F          62.8954   84.5190    6.1202 F       1  UNL1       -0.1328
@<TRIPOS>BOND
     1    10    11    2
     2    11    12    1
     3    12    13    1
     4    13    14    1
     5    14    15    1
     6    15    16    1
     7    16    17    1
     8    17    18    1
     9    18    19    1
    10    17    20    1
    11    20    21    1
    12    11     1    1
    13     1     2    2
    14     2     3    1
    15     3     4    2
    16     4     5    1
    17     5     6    1
    18     6    22    1
    19    22    23    1
    20    23    24    1
    21    23    25    1
    22    23    26    1
    23     6     7    2
    24     7     8    1
    25     8     9    2
    26    19    14    1
    27     9     1    1
    28    21    14    1
    29     9     4    1
@<TRIPOS>MOLECULE
*****
 26 29 0 0 0
SMALL
GASTEIGER

@<TRIPOS>ATOM
      1 C          63.5295   90.2974   13.8531 C.2     1  UNL1        0.0958
      2 C          62.4830   90.0827   12.8002 C.2     1  UNL1        0.1049
      3 N          62.9320   90.7817   11.5512 N.2     1  UNL1       -0.2475
      4 C          64.2559   91.4283   11.8323 C.2     1  UNL1        0.0668
      5 C          65.1729   92.2510   10.9765 C.3     1  UNL1        0.1098
      6 C          66.4592   92.7744   11.5435 C.2     1  UNL1        0.1302
      7 C          66.8285   92.4751   12.9661 C.2     1  UNL1        0.0331
      8 C          65.9116   91.6524   13.8219 C.2     1  UNL1        0.0042
      9 C          64.6253   91.1290   13.2549 C.2     1  UNL1        0.0218
     10 O          63.3737   90.7248   16.4111 O.2     1  UNL1       -0.2448
     11 C          63.4877   89.7727   15.2577 C.2     1  UNL1        0.3428
     12 O          63.5599   88.2955   15.5090 O.3     1  UNL1       -0.4454
     13 C          64.4866   87.4409   14.6960 C.3     1  UNL1        0.2087
     14 C          64.0907   86.0402   14.3337 C.3     1  UNL1        0.0445
     15 C          64.4127   84.9061   15.2612 C.3     1  UNL1        0.0210
     16 C          64.0168   83.5054   14.8988 C.3     1  UNL1        0.0722
     17 N          63.2990   83.2387   13.6090 N.3     1  UNL1       -0.2727
     18 C          62.9771   84.3728   12.6815 C.3     1  UNL1        0.0722
     19 C          63.3730   85.7736   13.0438 C.3     1  UNL1        0.0210
     20 C          63.4958   84.0230   13.7645 C.3     1  UNL1        0.0722
     21 C          63.8536   85.2896   14.0920 C.3     1  UNL1        0.0210
     22 O          67.3763   93.5971   10.6877 O.2     1  UNL1       -0.4085
     23 C          68.0519   92.9768    9.5007 C.3     1  UNL1        0.5750
     24 F          68.7275   92.3565    8.3138 F       1  UNL1       -0.1328
     25 F          67.6311   94.1406    8.6531 F       1  UNL1       -0.1328
     26 F          68.4726   91.8130   10.3484 F       1  UNL1       -0.1328
@<TRIPOS>BOND
     1    10    11    2
     2    11    12    1
     3    12    13    1
     4    13    14    1
     5    14    15    1
     6    15    16    1
     7    16    17    1
     8    17    18    1
     9    18    19    1
    10    17    20    1
    11    20    21    1
    12    11     1    1
    13     1     2    2
    14     2     3    1
    15     3     4    2
    16     4     5    1
    17     5     6    1
    18     6    22    1
    19    22    23    1
    20    23    24    1
    21    23    25    1
    22    23    26    1
    23     6     7    2
    24     7     8    1
    25     8     9    2
    26    19    14    1
    27     9     1    1
    28    21    14    1
    29     9     4    1
@<TRIPOS>MOLECULE
*****
 26 29 0 0 0
SMALL
GASTEIGER

@<TRIPOS>ATOM
      1 C          62.7093   89.7483   11.3563 C.2     1  UNL1        0.0958
      2 C          62.6712   90.5518   10.0903 C.2     1  UNL1        0.1049
      3 N          63.6048   91.7147   10.2512 N.2     1  UNL1       -0.2475
      4 C          64.2198   91.6300   11.6167 C.2     1  UNL1        0.0668
      5 C          65.2124   92.5025   12.3263 C.3     1  UNL1        0.1098
      6 C          65.6514   92.1596   13.7190 C.2     1  UNL1        0.1302
      7 C          65.0979   90.9442   14.4020 C.2     1  UNL1        0.0331
      8 C          64.1054   90.0718   13.6924 C.2     1  UNL1        0.0042
      9 C          63.6664   90.4146   12.2997 C.2     1  UNL1        0.0218
     10 O          60.4282   88.5288   11.6003 O.2     1  UNL1       -0.2448
     11 C          61.9275   88.4979   11.6309 C.2     1  UNL1        0.3428
     12 O          62.6451   87.2165   11.9361 O.3     1  UNL1       -0.4454
     13 C          62.0217   85.9022   11.5700 C.3     1  UNL1        0.2087
     14 C          62.8702   84.6683   11.4823 C.3     1  UNL1        0.0445
     15 C          63.3725   84.1966   10.1500 C.3     1  UNL1        0.0210
     16 C          64.2209   82.9627   10.0624 C.3     1  UNL1        0.0722
     17 N          64.5670   82.2004   11.3071 N.3     1  UNL1       -0.2727
     18 C          64.0646   82.6721   12.6394 C.3     1  UNL1        0.0722
     19 C          63.2162   83.9061   12.7271 C.3     1  UNL1        0.0210
     20 C          64.0991   82.8709   11.4051 C.3     1  UNL1        0.0722
     21 C          63.3320   83.9866   11.4844 C.3     1  UNL1        0.0210
     22 O          66.6440   93.0321   14.4287 O.2     1  UNL1       -0.4085
     23 C          67.5004   92.4601   15.5193 C.3     1  UNL1        0.5750
     24 F          68.3568   91.8882   16.6099 F       1  UNL1       -0.1328
     25 F          68.4566   91.9320   14.4914 F       1  UNL1       -0.1328
     26 F          66.5441   92.9883   16.5472 F       1  UNL1       -0.1328
@<TRIPOS>BOND
     1    10    11    2
     2    11    12    1
     3    12    13    1
     4    13    14    1
     5    14    15    1
     6    15    16    1
     7    16    17    1
     8    17    18    1
     9    18    19    1
    10    17    20    1
    11    20    21    1
    12    11     1    1
    13     1     2    2
    14     2     3    1
    15     3     4    2
    16     4     5    1
    17     5     6    1
    18     6    22    1
    19    22    23    1
    20    23    24    1
    21    23    25    1
    22    23    26    1
    23     6     7    2
    24     7     8    1
    25     8     9    2
    26    19    14    1
    27     9     1    1
    28    21    14    1
    29     9     4    1
@<TRIPOS>MOLECULE
*****
 26 29 0 0 0
SMALL
GASTEIGER

@<TRIPOS>ATOM
      1 C          64.1021   90.6470   13.1812 C.2     1  UNL1        0.0958
      2 C          64.4834   90.8216   14.6213 C.2     1  UNL1        0.1049
      3 N          65.3871   92.0147   14.7201 N.2     1  UNL1       -0.2475
      4 C          65.5643   92.5775   13.3410 C.2     1  UNL1        0.0668
      5 C          66.3463   93.7504   12.8284 C.3     1  UNL1        0.1098
      6 C          66.3340   94.0780   11.3647 C.2     1  UNL1        0.1302
      7 C          65.5398   93.2326   10.4136 C.2     1  UNL1        0.0331
      8 C          64.7579   92.0597   10.9261 C.2     1  UNL1        0.0042
      9 C          64.7701   91.7321   12.3898 C.2     1  UNL1        0.0218
     10 O          63.4920   88.1338   12.9326 O.2     1  UNL1       -0.2448
     11 C          63.2095   89.5753   12.6292 C.2     1  UNL1        0.3428
     12 O          62.0341   89.9452   11.7735 O.3     1  UNL1       -0.4454
     13 C          62.1098   89.7823   10.2843 C.3     1  UNL1        0.2087
     14 C          61.4440   88.6120    9.6232 C.3     1  UNL1        0.0445
     15 C          60.1393   88.7976    8.9067 C.3     1  UNL1        0.0210
     16 C          59.4736   87.6273    8.2456 C.3     1  UNL1        0.0722
     17 N          60.1126   86.2713    8.3009 N.3     1  UNL1       -0.2727
     18 C          61.4173   86.0856    9.0173 C.3     1  UNL1        0.0722
     19 C          62.0830   87.2561    9.6785 C.3     1  UNL1        0.0210
     20 C          60.5150   86.8826    8.6781 C.3     1  UNL1        0.0722
     21 C          61.1171   87.9408    9.2759 C.3     1  UNL1        0.0210
     22 O          67.1159   95.2510   10.8520 O.2     1  UNL1       -0.4085
     23 C          67.3451   95.4133    9.3786 C.3     1  UNL1        0.5750
     24 F          67.5743   95.5756    7.9051 F       1  UNL1       -0.1328
     25 F          68.4408   94.3904    9.4363 F       1  UNL1       -0.1328
     26 F          66.2495   96.4362    9.3208 F       1  UNL1       -0.1328
@<TRIPOS>BOND
     1    10    11    2
     2    11    12    1
     3    12    13    1
     4    13    14    1
     5    14    15    1
     6    15    16    1
     7    16    17    1
     8    17    18    1
     9    18    19    1
    10    17    20    1
    11    20    21    1
    12    11     1    1
    13     1     2    2
    14     2     3    1
    15     3     4    2
    16     4     5    1
    17     5     6    1
    18     6    22    1
    19    22    23    1
    20    23    24    1
    21    23    25    1
    22    23    26    1
    23     6     7    2
    24     7     8    1
    25     8     9    2
    26    19    14    1
    27     9     1    1
    28    21    14    1
    29     9     4    1
@<TRIPOS>MOLECULE
*****
 26 29 0 0 0
SMALL
GASTEIGER

@<TRIPOS>ATOM
      1 C          63.5216   85.5700   16.0387 C.2     1  UNL1        0.0958
      2 C          62.7122   85.4918   17.2992 C.2     1  UNL1        0.1049
      3 N          62.4215   86.8924   17.7509 N.2     1  UNL1       -0.2475
      4 C          63.0513   87.8361   16.7697 C.2     1  UNL1        0.0668
      5 C          63.0935   89.3340   16.7030 C.3     1  UNL1        0.1098
      6 C          63.8156   90.0146   15.5782 C.2     1  UNL1        0.1302
      7 C          64.4954   89.1973   14.5200 C.2     1  UNL1        0.0331
      8 C          64.4532   87.6994   14.5866 C.2     1  UNL1        0.0042
      9 C          63.7312   87.0188   15.7114 C.2     1  UNL1        0.0218
     10 O          65.3050   84.5294   14.4618 O.2     1  UNL1       -0.2448
     11 C          64.0318   84.4040   15.2449 C.2     1  UNL1        0.3428
     12 O          63.2688   83.1126   15.2340 O.3     1  UNL1       -0.4454
     13 C          62.4006   82.7642   14.0615 C.3     1  UNL1        0.2087
     14 C          62.8474   83.1038   12.6704 C.3     1  UNL1        0.0445
     15 C          62.4695   84.4218   12.0620 C.3     1  UNL1        0.0210
     16 C          62.9164   84.7613   10.6710 C.3     1  UNL1        0.0722
     17 N          63.7411   83.7829    9.8883 N.3     1  UNL1       -0.2727
     18 C          64.1190   82.4649   10.4967 C.3     1  UNL1        0.0722
     19 C          63.6721   82.1254   11.8878 C.3     1  UNL1        0.0210
     20 C          63.5196   83.5523   10.6471 C.3     1  UNL1        0.0722
     21 C          63.1156   83.2452   11.9049 C.3     1  UNL1        0.0210
     22 O          63.8578   91.5125   15.5115 O.2     1  UNL1       -0.4085
     23 C          65.1285   92.2420   15.8328 C.3     1  UNL1        0.5750
     24 F          66.3991   92.9715   16.1542 F       1  UNL1       -0.1328
     25 F          64.7008   92.3556   17.2661 F       1  UNL1       -0.1328
     26 F          65.5561   92.1284   14.3996 F       1  UNL1       -0.1328
@<TRIPOS>BOND
     1    10    11    2
     2    11    12    1
     3    12    13    1
     4    13    14    1
     5    14    15    1
     6    15    16    1
     7    16    17    1
     8    17    18    1
     9    18    19    1
    10    17    20    1
    11    20    21    1
    12    11     1    1
    13     1     2    2
    14     2     3    1
    15     3     4    2
    16     4     5    1
    17     5     6    1
    18     6    22    1
    19    22    23    1
    20    23    24    1
    21    23    25    1
    22    23    26    1
    23     6     7    2
    24     7     8    1
    25     8     9    2
    26    19    14    1
    27     9     1    1
    28    21    14    1
    29     9     4    1
@<TRIPOS>MOLECULE
*****
 26 29 0 0 0
SMALL
GASTEIGER

@<TRIPOS>ATOM
      1 C          63.6621   87.4060   13.4309 C.2     1  UNL1        0.0958
      2 C          64.4777   87.5630   14.6800 C.2     1  UNL1        0.1049
      3 N          64.7705   86.1936   15.2176 N.2     1  UNL1       -0.2475
      4 C          64.1359   85.1902   14.3007 C.2     1  UNL1        0.0668
      5 C          64.0933   83.6911   14.3287 C.3     1  UNL1        0.1098
      6 C          63.3657   82.9413   13.2525 C.2     1  UNL1        0.1302
      7 C          62.6807   83.6906   12.1483 C.2     1  UNL1        0.0331
      8 C          62.7233   85.1897   12.1203 C.2     1  UNL1        0.0042
      9 C          63.4509   85.9395   13.1965 C.2     1  UNL1        0.0218
     10 O          63.8264   89.8574   12.5863 O.2     1  UNL1       -0.2448
     11 C          63.1480   88.5198   12.5678 C.2     1  UNL1        0.3428
     12 O          61.9553   88.2960   11.6859 O.3     1  UNL1       -0.4454
     13 C          62.0689   88.5015   10.2044 C.3     1  UNL1        0.2087
     14 C          61.3864   87.5554    9.2616 C.3     1  UNL1        0.0445
     15 C          59.9504   87.7748    8.8876 C.3     1  UNL1        0.0210
     16 C          59.2680   86.8286    7.9447 C.3     1  UNL1        0.0722
     17 N          60.0214   85.6630    7.3758 N.3     1  UNL1       -0.2727
     18 C          61.4573   85.4435    7.7498 C.3     1  UNL1        0.0722
     19 C          62.1399   86.3897    8.6927 C.3     1  UNL1        0.0210
     20 C          60.4378   86.1545    7.8887 C.3     1  UNL1        0.0722
     21 C          61.0550   87.0100    8.7412 C.3     1  UNL1        0.0210
     22 O          63.3231   81.4421   13.2804 O.2     1  UNL1       -0.4085
     23 C          62.0318   80.7337   13.5646 C.3     1  UNL1        0.5750
     24 F          60.7405   80.0253   13.8487 F       1  UNL1       -0.1328
     25 F          61.6613   81.8037   14.5484 F       1  UNL1       -0.1328
     26 F          62.4023   79.6638   12.5807 F       1  UNL1       -0.1328
@<TRIPOS>BOND
     1    10    11    2
     2    11    12    1
     3    12    13    1
     4    13    14    1
     5    14    15    1
     6    15    16    1
     7    16    17    1
     8    17    18    1
     9    18    19    1
    10    17    20    1
    11    20    21    1
    12    11     1    1
    13     1     2    2
    14     2     3    1
    15     3     4    2
    16     4     5    1
    17     5     6    1
    18     6    22    1
    19    22    23    1
    20    23    24    1
    21    23    25    1
    22    23    26    1
    23     6     7    2
    24     7     8    1
    25     8     9    2
    26    19    14    1
    27     9     1    1
    28    21    14    1
    29     9     4    1
@<TRIPOS>MOLECULE
*****
 26 29 0 0 0
SMALL
GASTEIGER

@<TRIPOS>ATOM
      1 C          63.3043   90.4010   11.5065 C.2     1  UNL1        0.0958
      2 C          63.2500   91.1969   10.2363 C.2     1  UNL1        0.1049
      3 N          64.2181   92.3359   10.3613 N.2     1  UNL1       -0.2475
      4 C          64.8707   92.2439   11.7088 C.2     1  UNL1        0.0668
      5 C          65.9062   93.0945   12.3827 C.3     1  UNL1        0.1098
      6 C          66.3769   92.7492   13.7644 C.2     1  UNL1        0.1302
      7 C          65.8121   91.5534   14.4722 C.2     1  UNL1        0.0331
      8 C          64.7766   90.7028   13.7983 C.2     1  UNL1        0.0042
      9 C          64.3059   91.0480   12.4166 C.2     1  UNL1        0.0218
     10 O          63.1096   88.0522   12.5997 O.2     1  UNL1       -0.2448
     11 C          62.4985   89.1735   11.8130 C.2     1  UNL1        0.3428
     12 O          61.0813   89.0674   11.3326 O.3     1  UNL1       -0.4454
     13 C          60.4688   87.7188   11.0955 C.3     1  UNL1        0.2087
     14 C          60.7861   86.9613    9.8404 C.3     1  UNL1        0.0445
     15 C          62.1533   86.3767    9.6425 C.3     1  UNL1        0.0210
     16 C          62.4705   85.6191    8.3873 C.3     1  UNL1        0.0722
     17 N          61.4206   85.4461    7.3300 N.3     1  UNL1       -0.2727
     18 C          60.0535   86.0307    7.5279 C.3     1  UNL1        0.0722
     19 C          59.7362   86.7883    8.7831 C.3     1  UNL1        0.0210
     20 C          61.1999   85.8692    8.0010 C.3     1  UNL1        0.0722
     21 C          60.9129   86.5542    9.1359 C.3     1  UNL1        0.0210
     22 O          67.4124   93.5999   14.4384 O.2     1  UNL1       -0.4085
     23 C          68.3643   92.9849   15.4211 C.3     1  UNL1        0.5750
     24 F          69.3162   92.3700   16.4038 F       1  UNL1       -0.1328
     25 F          69.0738   92.2884   14.2979 F       1  UNL1       -0.1328
     26 F          67.6548   93.6815   16.5442 F       1  UNL1       -0.1328
@<TRIPOS>BOND
     1    10    11    2
     2    11    12    1
     3    12    13    1
     4    13    14    1
     5    14    15    1
     6    15    16    1
     7    16    17    1
     8    17    18    1
     9    18    19    1
    10    17    20    1
    11    20    21    1
    12    11     1    1
    13     1     2    2
    14     2     3    1
    15     3     4    2
    16     4     5    1
    17     5     6    1
    18     6    22    1
    19    22    23    1
    20    23    24    1
    21    23    25    1
    22    23    26    1
    23     6     7    2
    24     7     8    1
    25     8     9    2
    26    19    14    1
    27     9     1    1
    28    21    14    1
    29     9     4    1
@<TRIPOS>MOLECULE
*****
 26 29 0 0 0
SMALL
GASTEIGER

@<TRIPOS>ATOM
      1 C          61.9078   90.1113   11.6043 C.2     1  UNL1        0.0958
      2 C          61.6711   89.4816   12.9450 C.2     1  UNL1        0.1049
      3 N          62.8050   89.8708   13.8466 N.2     1  UNL1       -0.2475
      4 C          63.7424   90.7412   13.0631 C.2     1  UNL1        0.0668
      5 C          65.0293   91.4175   13.4326 C.3     1  UNL1        0.1098
      6 C          65.7616   92.2425   12.4162 C.2     1  UNL1        0.1302
      7 C          65.2071   92.3911   11.0304 C.2     1  UNL1        0.0331
      8 C          63.9203   91.7148   10.6610 C.2     1  UNL1        0.0042
      9 C          63.1879   90.8898   11.6773 C.2     1  UNL1        0.0218
     10 O          59.7432   90.7681   10.3264 O.2     1  UNL1       -0.2448
     11 C          61.0202   89.9849   10.4018 C.2     1  UNL1        0.3428
     12 O          61.4096   89.0750    9.2745 O.3     1  UNL1       -0.4454
     13 C          60.8370   87.6909    9.1958 C.3     1  UNL1        0.2087
     14 C          61.6387   86.5190    9.6793 C.3     1  UNL1        0.0445
     15 C          61.5598   86.0981   11.1169 C.3     1  UNL1        0.0210
     16 C          62.3616   84.9262   11.6004 C.3     1  UNL1        0.0722
     17 N          63.2424   84.1751   10.6463 N.3     1  UNL1       -0.2727
     18 C          63.3213   84.5960    9.2087 C.3     1  UNL1        0.0722
     19 C          62.5194   85.7680    8.7252 C.3     1  UNL1        0.0210
     20 C          62.8216   84.8108   10.3350 C.3     1  UNL1        0.0722
     21 C          62.0967   85.8705    9.8977 C.3     1  UNL1        0.0210
     22 O          67.0485   92.9189   12.7856 O.2     1  UNL1       -0.4085
     23 C          67.3726   93.1782   14.2271 C.3     1  UNL1        0.5750
     24 F          67.6968   93.4375   15.6685 F       1  UNL1       -0.1328
     25 F          66.4752   94.3800   14.2127 F       1  UNL1       -0.1328
     26 F          68.2701   91.9764   14.2414 F       1  UNL1       -0.1328
@<TRIPOS>BOND
     1    10    11    2
     2    11    12    1
     3    12    13    1
     4    13    14    1
     5    14    15    1
     6    15    16    1
     7    16    17    1
     8    17    18    1
     9    18    19    1
    10    17    20    1
    11    20    21    1
    12    11     1    1
    13     1     2    2
    14     2     3    1
    15     3     4    2
    16     4     5    1
    17     5     6    1
    18     6    22    1
    19    22    23    1
    20    23    24    1
    21    23    25    1
    22    23    26    1
    23     6     7    2
    24     7     8    1
    25     8     9    2
    26    19    14    1
    27     9     1    1
    28    21    14    1
    29     9     4    1
