@<TRIPOS>MOLECULE
*****
 32 35 0 0 0
SMALL
GASTEIGER

@<TRIPOS>ATOM
      1 C          63.2934   85.6479   15.9775 C.ar    1  UNL1        0.0536
      2 C          64.5996   85.3990   15.2835 C.ar    1  UNL1        0.0042
      3 C          64.8249   84.1109   14.5486 C.ar    1  UNL1       -0.0033
      4 C          63.7439   83.0717   14.5079 C.ar    1  UNL1       -0.0110
      5 C          62.4377   83.3207   15.2020 C.ar    1  UNL1       -0.0033
      6 C          62.2124   84.6088   15.9368 C.ar    1  UNL1        0.0042
      7 C          64.5215   90.8144   14.9527 C.3     1  UNL1        0.1025
      8 C          64.7468   89.5262   14.2178 C.3     1  UNL1        0.0327
      9 C          64.2623   88.2335   14.8044 C.3     1  UNL1        0.0943
     10 N          63.5526   88.2288   16.1258 N.am    1  UNL1       -0.2761
     11 C          63.0681   86.9361   16.7124 C.2     1  UNL1        0.2490
     12 O          62.3584   86.9314   18.0339 O.2     1  UNL1       -0.2699
     13 C          63.3273   89.5169   16.8607 C.3     1  UNL1        0.0943
     14 C          63.8117   90.8097   16.2742 C.3     1  UNL1        0.0327
     15 C          65.0060   92.1071   14.3661 C.2     1  UNL1        0.3167
     16 O          64.7710   92.4071   12.9153 O.2     1  UNL1       -0.2501
     17 C          66.9824   92.7003   15.9447 C.3     1  UNL1        0.2556
     18 O          65.7254   93.0999   15.2303 O.3     1  UNL1       -0.4444
     19 C          63.9692   81.7836   13.7730 C.3     1  UNL1        0.0884
     20 S          63.3625   81.5779   12.4167 S.3     1  UNL1       -0.1088
     21 C          63.2249   82.7359   11.4732 C.ar    1  UNL1        0.0261
     22 C          63.9827   82.7427   10.1787 C.ar    1  UNL1        0.0077
     23 C          63.8450   83.9007    9.2352 C.ar    1  UNL1        0.0202
     24 C          62.9496   85.0518    9.5862 C.ar    1  UNL1        0.0893
     25 N          62.6165   86.3218    8.8608 N.ar    1  UNL1       -0.2245
     26 C          61.6529   87.0998    9.7070 C.ar    1  UNL1        0.1567
     27 N          61.0564   88.4330    9.3649 N.pl3   1  UNL1       -0.3375
     28 S          61.3904   86.3107   10.9553 S.2     1  UNL1       -0.0520
     29 C          62.1918   85.0449   10.8807 C.ar    1  UNL1        0.0502
     30 C          62.3295   83.8870   11.8241 C.ar    1  UNL1        0.0142
     31 H          61.2914   88.8744    8.5169 H       1  UNL1        0.1442
     32 H          60.4300   88.8666    9.9885 H       1  UNL1        0.1442
@<TRIPOS>BOND
     1    17    18    1
     2    18    15    1
     3    15    16    2
     4    15     7    1
     5     7     8    1
     6     8     9    1
     7     9    10    1
     8    10    11   am
     9    11    12    2
    10    11     1    1
    11     1     2   ar
    12     2     3   ar
    13     3     4   ar
    14     4    19    1
    15    19    20    1
    16    20    21    1
    17    21    22   ar
    18    22    23   ar
    19    23    24   ar
    20    24    25   ar
    21    25    26   ar
    22    26    27    1
    23    26    28   ar
    24    28    29   ar
    25    29    30   ar
    26     4     5   ar
    27     5     6   ar
    28    10    13    1
    29    13    14    1
    30    14     7    1
    31     6     1   ar
    32    30    21   ar
    33    29    24   ar
    34    27    31    1
    35    27    32    1
@<TRIPOS>MOLECULE
*****
 32 35 0 0 0
SMALL
GASTEIGER

@<TRIPOS>ATOM
      1 C          63.3542   88.7659   12.4220 C.ar    1  UNL1        0.0536
      2 C          64.0472   88.4754   13.7202 C.ar    1  UNL1        0.0042
      3 C          64.6674   89.5926   14.5057 C.ar    1  UNL1       -0.0033
      4 C          64.5947   91.0004   13.9931 C.ar    1  UNL1       -0.0110
      5 C          63.9017   91.2909   12.6949 C.ar    1  UNL1       -0.0033
      6 C          63.2815   90.1737   11.9093 C.ar    1  UNL1        0.0042
      7 C          63.1182   83.4024   13.0758 C.3     1  UNL1        0.1025
      8 C          63.7384   84.5197   13.8614 C.3     1  UNL1        0.0327
      9 C          63.6104   85.9351   13.3816 C.3     1  UNL1        0.0943
     10 N          62.8621   86.2333   12.1162 N.am    1  UNL1       -0.2761
     11 C          62.7340   87.6487   11.6365 C.2     1  UNL1        0.2490
     12 O          61.9857   87.9469   10.3711 O.2     1  UNL1       -0.2699
     13 C          62.2418   85.1161   11.3307 C.3     1  UNL1        0.0943
     14 C          62.3699   83.7006   11.8104 C.3     1  UNL1        0.0327
     15 C          63.2462   81.9870   13.5555 C.2     1  UNL1        0.3167
     16 O          64.3393   81.1098   13.0208 O.2     1  UNL1       -0.2501
     17 C          61.0004   80.8097   14.1215 C.3     1  UNL1        0.2556
     18 O          62.2813   81.4487   14.5700 O.3     1  UNL1       -0.4444
     19 C          65.2149   92.1177   14.7786 C.3     1  UNL1        0.0884
     20 S          66.5137   92.7192   14.3299 S.3     1  UNL1       -0.1088
     21 C          66.7089   93.0943   12.8906 C.ar    1  UNL1        0.0261
     22 C          67.3445   92.1219   11.9417 C.ar    1  UNL1        0.0077
     23 C          67.5397   92.4970   10.5026 C.ar    1  UNL1        0.0202
     24 C          67.0992   93.8445   10.0124 C.ar    1  UNL1        0.0893
     25 N          67.1610   94.4898    8.6596 N.ar    1  UNL1       -0.2245
     26 C          66.5635   95.8611    8.7726 C.ar    1  UNL1        0.1567
     27 N          66.4219   96.8557    7.6586 N.pl3   1  UNL1       -0.3375
     28 S          66.1325   96.0632   10.1951 S.2     1  UNL1       -0.0520
     29 C          66.4636   94.8168   10.9613 C.ar    1  UNL1        0.0502
     30 C          66.2684   94.4417   12.4004 C.ar    1  UNL1        0.0142
     31 H          66.7368   96.6293    6.7537 H       1  UNL1        0.1442
     32 H          66.0142   97.7347    7.8325 H       1  UNL1        0.1442
@<TRIPOS>BOND
     1    17    18    1
     2    18    15    1
     3    15    16    2
     4    15     7    1
     5     7     8    1
     6     8     9    1
     7     9    10    1
     8    10    11   am
     9    11    12    2
    10    11     1    1
    11     1     2   ar
    12     2     3   ar
    13     3     4   ar
    14     4    19    1
    15    19    20    1
    16    20    21    1
    17    21    22   ar
    18    22    23   ar
    19    23    24   ar
    20    24    25   ar
    21    25    26   ar
    22    26    27    1
    23    26    28   ar
    24    28    29   ar
    25    29    30   ar
    26     4     5   ar
    27     5     6   ar
    28    10    13    1
    29    13    14    1
    30    14     7    1
    31     6     1   ar
    32    30    21   ar
    33    29    24   ar
    34    27    31    1
    35    27    32    1
@<TRIPOS>MOLECULE
*****
 32 35 0 0 0
SMALL
GASTEIGER

@<TRIPOS>ATOM
      1 C          63.5114   87.8375   16.0168 C.ar    1  UNL1        0.0536
      2 C          64.3532   88.0453   14.7928 C.ar    1  UNL1        0.0042
      3 C          64.7941   89.4274   14.4116 C.ar    1  UNL1       -0.0033
      4 C          64.3931   90.6017   15.2544 C.ar    1  UNL1       -0.0110
      5 C          63.5513   90.3939   16.4783 C.ar    1  UNL1       -0.0033
      6 C          63.1104   89.0118   16.8595 C.ar    1  UNL1        0.0042
      7 C          63.5813   83.0510   13.4997 C.3     1  UNL1        0.1025
      8 C          64.0222   84.4332   13.1185 C.3     1  UNL1        0.0327
      9 C          63.8519   85.5679   14.0846 C.3     1  UNL1        0.0943
     10 N          63.2408   85.3206   15.4319 N.am    1  UNL1       -0.2761
     11 C          63.0705   86.4553   16.3980 C.2     1  UNL1        0.2490
     12 O          62.4594   86.2079   17.7453 O.2     1  UNL1       -0.2699
     13 C          62.7999   83.9385   15.8132 C.3     1  UNL1        0.0943
     14 C          62.9701   82.8037   14.8471 C.3     1  UNL1        0.0327
     15 C          63.7515   81.9163   12.5337 C.2     1  UNL1        0.3167
     16 O          63.0262   80.6230   12.7604 O.2     1  UNL1       -0.2501
     17 C          64.1263   82.7241   10.0929 C.3     1  UNL1        0.2556
     18 O          64.6471   82.0748   11.3408 O.3     1  UNL1       -0.4444
     19 C          64.8340   91.9839   14.8732 C.3     1  UNL1        0.0884
     20 S          66.2502   92.2275   14.4432 S.3     1  UNL1       -0.1088
     21 C          66.5391   92.7139   13.0539 C.ar    1  UNL1        0.0261
     22 C          67.2625   91.8272   12.0841 C.ar    1  UNL1        0.0077
     23 C          67.5514   92.3136   10.6949 C.ar    1  UNL1        0.0202
     24 C          67.1169   93.6867   10.2755 C.ar    1  UNL1        0.0893
     25 N          67.2606   94.4337    8.9826 N.ar    1  UNL1       -0.2245
     26 C          66.6260   95.7821    9.1535 C.ar    1  UNL1        0.1567
     27 N          66.5419   96.8557    8.1092 N.pl3   1  UNL1       -0.3375
     28 S          66.0902   95.8684   10.5518 S.2     1  UNL1       -0.0520
     29 C          66.3936   94.5734   11.2453 C.ar    1  UNL1        0.0502
     30 C          66.1047   94.0870   12.6345 C.ar    1  UNL1        0.0142
     31 H          66.9255   96.7040    7.2153 H       1  UNL1        0.1442
     32 H          66.1032   97.7120    8.3178 H       1  UNL1        0.1442
@<TRIPOS>BOND
     1    17    18    1
     2    18    15    1
     3    15    16    2
     4    15     7    1
     5     7     8    1
     6     8     9    1
     7     9    10    1
     8    10    11   am
     9    11    12    2
    10    11     1    1
    11     1     2   ar
    12     2     3   ar
    13     3     4   ar
    14     4    19    1
    15    19    20    1
    16    20    21    1
    17    21    22   ar
    18    22    23   ar
    19    23    24   ar
    20    24    25   ar
    21    25    26   ar
    22    26    27    1
    23    26    28   ar
    24    28    29   ar
    25    29    30   ar
    26     4     5   ar
    27     5     6   ar
    28    10    13    1
    29    13    14    1
    30    14     7    1
    31     6     1   ar
    32    30    21   ar
    33    29    24   ar
    34    27    31    1
    35    27    32    1
@<TRIPOS>MOLECULE
*****
 32 35 0 0 0
SMALL
GASTEIGER

@<TRIPOS>ATOM
      1 C          62.5338   90.1619   11.8957 C.ar    1  UNL1        0.0536
      2 C          61.1820   89.8285   12.4537 C.ar    1  UNL1        0.0042
      3 C          60.1558   89.1626   11.5856 C.ar    1  UNL1       -0.0033
      4 C          60.4814   88.8302   10.1596 C.ar    1  UNL1       -0.0110
      5 C          61.8333   89.1636    9.6017 C.ar    1  UNL1       -0.0033
      6 C          62.8594   89.8295   10.4697 C.ar    1  UNL1        0.0042
      7 C          66.2829   93.9622   11.0285 C.3     1  UNL1        0.1025
      8 C          65.2567   93.2963   10.1604 C.3     1  UNL1        0.0327
      9 C          64.3491   92.2515   10.7389 C.3     1  UNL1        0.0943
     10 N          64.4677   91.8726   12.1854 N.am    1  UNL1       -0.2761
     11 C          63.5601   90.8278   12.7638 C.2     1  UNL1        0.2490
     12 O          63.6786   90.4488   14.2103 O.2     1  UNL1       -0.2699
     13 C          65.4939   92.5384   13.0534 C.3     1  UNL1        0.0943
     14 C          66.4015   93.5832   12.4750 C.3     1  UNL1        0.0327
     15 C          67.1905   95.0070   10.4501 C.2     1  UNL1        0.3167
     16 O          66.9220   96.4600   10.7082 O.2     1  UNL1       -0.2501
     17 C          68.6156   93.1476    9.3266 C.3     1  UNL1        0.2556
     18 O          68.3667   94.5988    9.6134 O.3     1  UNL1       -0.4444
     19 C          59.4552   88.1643    9.2916 C.3     1  UNL1        0.0884
     20 S          59.8398   86.9895    8.4420 S.3     1  UNL1       -0.1088
     21 C          60.9915   86.1172    8.8455 C.ar    1  UNL1        0.0261
     22 C          61.9411   85.6003    7.8057 C.ar    1  UNL1        0.0077
     23 C          63.0928   84.7281    8.2092 C.ar    1  UNL1        0.0202
     24 C          63.2949   84.3727    9.6524 C.ar    1  UNL1        0.0893
     25 N          64.3317   83.5389   10.3451 N.ar    1  UNL1       -0.2245
     26 C          64.0229   83.5404   11.8129 C.ar    1  UNL1        0.1567
     27 N          64.8045   82.8316   12.8792 N.pl3   1  UNL1       -0.3375
     28 S          62.7952   84.3752   12.0274 S.2     1  UNL1       -0.0520
     29 C          62.3453   84.8896   10.6922 C.ar    1  UNL1        0.0502
     30 C          61.1936   85.7618   10.2887 C.ar    1  UNL1        0.0142
     31 H          65.6007   82.3052   12.6381 H       1  UNL1        0.1442
     32 H          64.5212   82.8928   13.8200 H       1  UNL1        0.1442
@<TRIPOS>BOND
     1    17    18    1
     2    18    15    1
     3    15    16    2
     4    15     7    1
     5     7     8    1
     6     8     9    1
     7     9    10    1
     8    10    11   am
     9    11    12    2
    10    11     1    1
    11     1     2   ar
    12     2     3   ar
    13     3     4   ar
    14     4    19    1
    15    19    20    1
    16    20    21    1
    17    21    22   ar
    18    22    23   ar
    19    23    24   ar
    20    24    25   ar
    21    25    26   ar
    22    26    27    1
    23    26    28   ar
    24    28    29   ar
    25    29    30   ar
    26     4     5   ar
    27     5     6   ar
    28    10    13    1
    29    13    14    1
    30    14     7    1
    31     6     1   ar
    32    30    21   ar
    33    29    24   ar
    34    27    31    1
    35    27    32    1
@<TRIPOS>MOLECULE
*****
 32 35 0 0 0
SMALL
GASTEIGER

@<TRIPOS>ATOM
      1 C          63.5551   88.6128   12.9916 C.ar    1  UNL1        0.0536
      2 C          64.3037   88.3955   14.2732 C.ar    1  UNL1        0.0042
      3 C          64.9480   89.5563   14.9713 C.ar    1  UNL1       -0.0033
      4 C          64.8438   90.9342   14.3879 C.ar    1  UNL1       -0.0110
      5 C          64.0952   91.1515   13.1064 C.ar    1  UNL1       -0.0033
      6 C          63.4509   89.9907   12.4082 C.ar    1  UNL1        0.0042
      7 C          60.2707   88.1601    8.7187 C.3     1  UNL1        0.1025
      8 C          60.9151   89.3209    9.4169 C.3     1  UNL1        0.0327
      9 C          61.7951   89.0848   10.6084 C.3     1  UNL1        0.0943
     10 N          62.0307   87.6880   11.1018 N.am    1  UNL1       -0.2761
     11 C          62.9107   87.4520   12.2934 C.2     1  UNL1        0.2490
     12 O          63.1464   86.0552   12.7868 O.2     1  UNL1       -0.2699
     13 C          61.3864   86.5273   10.4037 C.3     1  UNL1        0.0943
     14 C          60.5063   86.7633    9.2120 C.3     1  UNL1        0.0327
     15 C          59.3907   88.3962    7.5271 C.2     1  UNL1        0.3167
     16 O          58.1882   87.5289    7.2992 O.2     1  UNL1       -0.2501
     17 C          58.6057   90.2584    5.8943 C.3     1  UNL1        0.2556
     18 O          59.7131   89.4995    6.5634 O.3     1  UNL1       -0.4444
     19 C          65.4882   92.0950   15.0862 C.3     1  UNL1        0.0884
     20 S          66.7579   92.6838   14.5467 S.3     1  UNL1       -0.1088
     21 C          66.8707   93.0149   13.0880 C.ar    1  UNL1        0.0261
     22 C          67.5755   92.0730   12.1575 C.ar    1  UNL1        0.0077
     23 C          67.6883   92.4041   10.6989 C.ar    1  UNL1        0.0202
     24 C          67.0963   93.6772   10.1708 C.ar    1  UNL1        0.0893
     25 N          67.0510   94.2669    8.7923 N.ar    1  UNL1       -0.2245
     26 C          66.3181   95.5733    8.8710 C.ar    1  UNL1        0.1567
     27 N          66.0414   96.4995    7.7239 N.pl3   1  UNL1       -0.3375
     28 S          65.9105   95.7910   10.2980 S.2     1  UNL1       -0.0520
     29 C          66.3915   94.6191   11.1014 C.ar    1  UNL1        0.0502
     30 C          66.2787   94.2879   12.5600 C.ar    1  UNL1        0.0142
     31 H          66.3512   96.2681    6.8185 H       1  UNL1        0.1442
     32 H          65.5500   97.3388    7.8765 H       1  UNL1        0.1442
@<TRIPOS>BOND
     1    17    18    1
     2    18    15    1
     3    15    16    2
     4    15     7    1
     5     7     8    1
     6     8     9    1
     7     9    10    1
     8    10    11   am
     9    11    12    2
    10    11     1    1
    11     1     2   ar
    12     2     3   ar
    13     3     4   ar
    14     4    19    1
    15    19    20    1
    16    20    21    1
    17    21    22   ar
    18    22    23   ar
    19    23    24   ar
    20    24    25   ar
    21    25    26   ar
    22    26    27    1
    23    26    28   ar
    24    28    29   ar
    25    29    30   ar
    26     4     5   ar
    27     5     6   ar
    28    10    13    1
    29    13    14    1
    30    14     7    1
    31     6     1   ar
    32    30    21   ar
    33    29    24   ar
    34    27    31    1
    35    27    32    1
@<TRIPOS>MOLECULE
*****
 32 35 0 0 0
SMALL
GASTEIGER

@<TRIPOS>ATOM
      1 C          63.3286   90.1192   12.3071 C.ar    1  UNL1        0.0536
      2 C          63.4491   88.6462   12.5634 C.ar    1  UNL1        0.0042
      3 C          62.6065   87.6784   11.7868 C.ar    1  UNL1       -0.0033
      4 C          61.6433   88.1836   10.7538 C.ar    1  UNL1       -0.0110
      5 C          61.5228   89.6565   10.4975 C.ar    1  UNL1       -0.0033
      6 C          62.3654   90.6243   11.2741 C.ar    1  UNL1        0.0042
      7 C          66.3631   94.3833   10.9436 C.3     1  UNL1        0.1025
      8 C          65.5205   93.4154   10.1669 C.3     1  UNL1        0.0327
      9 C          64.7899   92.3167   10.8803 C.3     1  UNL1        0.0943
     10 N          64.9019   92.1858   12.3704 N.am    1  UNL1       -0.2761
     11 C          64.1713   91.0871   13.0838 C.2     1  UNL1        0.2490
     12 O          64.2833   90.9562   14.5739 O.2     1  UNL1       -0.2699
     13 C          65.7445   93.1536   13.1471 C.3     1  UNL1        0.0943
     14 C          66.4752   94.2524   12.4337 C.3     1  UNL1        0.0327
     15 C          67.0937   95.4820   10.2302 C.2     1  UNL1        0.3167
     16 O          67.1540   96.8555   10.8302 O.2     1  UNL1       -0.2501
     17 C          67.1316   95.6753    7.6396 C.3     1  UNL1        0.2556
     18 O          67.7641   95.2074    8.9167 O.3     1  UNL1       -0.4444
     19 C          60.8006   87.2157    9.9771 C.3     1  UNL1        0.0884
     20 S          61.4538   86.1756    9.1160 S.3     1  UNL1       -0.1088
     21 C          62.2761   85.0899    9.7445 C.ar    1  UNL1        0.0261
     22 C          63.4249   84.4877    8.9913 C.ar    1  UNL1        0.0077
     23 C          64.2471   83.4020    9.6199 C.ar    1  UNL1        0.0202
     24 C          63.9205   82.9184   11.0017 C.ar    1  UNL1        0.0893
     25 N          64.5476   81.8706   11.8729 N.ar    1  UNL1       -0.2245
     26 C          63.7863   81.8252   13.1645 C.ar    1  UNL1        0.1567
     27 N          64.0724   80.9192   14.3253 N.pl3   1  UNL1       -0.3375
     28 S          62.6887   82.8450   13.0916 S.2     1  UNL1       -0.0520
     29 C          62.7716   83.5206   11.7550 C.ar    1  UNL1        0.0502
     30 C          61.9494   84.6063   11.1264 C.ar    1  UNL1        0.0142
     31 H          64.8194   80.2796   14.2780 H       1  UNL1        0.1442
     32 H          63.5133   80.9642   15.1343 H       1  UNL1        0.1442
@<TRIPOS>BOND
     1    17    18    1
     2    18    15    1
     3    15    16    2
     4    15     7    1
     5     7     8    1
     6     8     9    1
     7     9    10    1
     8    10    11   am
     9    11    12    2
    10    11     1    1
    11     1     2   ar
    12     2     3   ar
    13     3     4   ar
    14     4    19    1
    15    19    20    1
    16    20    21    1
    17    21    22   ar
    18    22    23   ar
    19    23    24   ar
    20    24    25   ar
    21    25    26   ar
    22    26    27    1
    23    26    28   ar
    24    28    29   ar
    25    29    30   ar
    26     4     5   ar
    27     5     6   ar
    28    10    13    1
    29    13    14    1
    30    14     7    1
    31     6     1   ar
    32    30    21   ar
    33    29    24   ar
    34    27    31    1
    35    27    32    1
@<TRIPOS>MOLECULE
*****
 32 35 0 0 0
SMALL
GASTEIGER

@<TRIPOS>ATOM
      1 C          61.2411   87.9377   10.0390 C.ar    1  UNL1        0.0536
      2 C          60.8955   89.3743    9.7810 C.ar    1  UNL1        0.0042
      3 C          60.1425   89.7534    8.5404 C.ar    1  UNL1       -0.0033
      4 C          59.7351   88.6959    7.5577 C.ar    1  UNL1       -0.0110
      5 C          60.0807   87.2592    7.8157 C.ar    1  UNL1       -0.0033
      6 C          60.8337   86.8801    9.0563 C.ar    1  UNL1        0.0042
      7 C          64.4739   90.6336   13.4348 C.3     1  UNL1        0.1025
      8 C          63.7209   91.0127   12.1941 C.3     1  UNL1        0.0327
      9 C          62.8943   89.9877   11.4757 C.3     1  UNL1        0.0943
     10 N          62.8207   88.5835   11.9980 N.am    1  UNL1       -0.2761
     11 C          61.9941   87.5585   11.2797 C.2     1  UNL1        0.2490
     12 O          61.9205   86.1543   11.8019 O.2     1  UNL1       -0.2699
     13 C          63.5737   88.2043   13.2386 C.3     1  UNL1        0.0943
     14 C          64.4003   89.2293   13.9571 C.3     1  UNL1        0.0327
     15 C          65.3005   91.6586   14.1531 C.2     1  UNL1        0.3167
     16 O          64.9673   92.0342   15.5666 O.2     1  UNL1       -0.2501
     17 C          66.3463   93.7220   12.9704 C.3     1  UNL1        0.2556
     18 O          66.4603   92.3080   13.4581 O.3     1  UNL1       -0.4444
     19 C          58.9821   89.0751    6.3170 C.3     1  UNL1        0.0884
     20 S          58.7297   90.5204    6.0051 S.3     1  UNL1       -0.1088
     21 C          59.5540   91.2181    4.9641 C.ar    1  UNL1        0.0261
     22 C          58.9397   92.2931    4.1174 C.ar    1  UNL1        0.0077
     23 C          59.7640   92.9907    3.0764 C.ar    1  UNL1        0.0202
     24 C          61.2027   92.6134    2.8821 C.ar    1  UNL1        0.0893
     25 N          62.2555   93.1215    1.9421 N.ar    1  UNL1       -0.2245
     26 C          63.5205   92.3605    2.2079 C.ar    1  UNL1        0.1567
     27 N          64.8271   92.5454    1.4947 N.pl3   1  UNL1       -0.3375
     28 S          63.2495   91.3821    3.3121 S.2     1  UNL1       -0.0520
     29 C          61.8171   91.5384    3.7288 C.ar    1  UNL1        0.0502
     30 C          60.9927   90.8407    4.7698 C.ar    1  UNL1        0.0142
     31 H          64.9067   93.2172    0.7793 H       1  UNL1        0.1442
     32 H          65.6051   91.9951    1.7419 H       1  UNL1        0.1442
@<TRIPOS>BOND
     1    17    18    1
     2    18    15    1
     3    15    16    2
     4    15     7    1
     5     7     8    1
     6     8     9    1
     7     9    10    1
     8    10    11   am
     9    11    12    2
    10    11     1    1
    11     1     2   ar
    12     2     3   ar
    13     3     4   ar
    14     4    19    1
    15    19    20    1
    16    20    21    1
    17    21    22   ar
    18    22    23   ar
    19    23    24   ar
    20    24    25   ar
    21    25    26   ar
    22    26    27    1
    23    26    28   ar
    24    28    29   ar
    25    29    30   ar
    26     4     5   ar
    27     5     6   ar
    28    10    13    1
    29    13    14    1
    30    14     7    1
    31     6     1   ar
    32    30    21   ar
    33    29    24   ar
    34    27    31    1
    35    27    32    1
@<TRIPOS>MOLECULE
*****
 32 35 0 0 0
SMALL
GASTEIGER

@<TRIPOS>ATOM
      1 C          62.0499   89.7438   12.6862 C.ar    1  UNL1        0.0536
      2 C          60.5577   89.7396   12.5334 C.ar    1  UNL1        0.0042
      3 C          59.9406   89.4108   11.2064 C.ar    1  UNL1       -0.0033
      4 C          60.8157   89.0862   10.0322 C.ar    1  UNL1       -0.0110
      5 C          62.3079   89.0903   10.1849 C.ar    1  UNL1       -0.0033
      6 C          62.9249   89.4191   11.5120 C.ar    1  UNL1        0.0042
      7 C          66.6605   92.1394   14.1874 C.3     1  UNL1        0.1025
      8 C          66.0433   91.8106   12.8603 C.3     1  UNL1        0.0327
      9 C          64.7122   91.1217   12.8023 C.3     1  UNL1        0.0943
     10 N          63.9981   90.7615   14.0713 N.am    1  UNL1       -0.2761
     11 C          62.6670   90.0726   14.0133 C.2     1  UNL1        0.2490
     12 O          61.9530   89.7124   15.2823 O.2     1  UNL1       -0.2699
     13 C          64.6152   91.0903   15.3983 C.3     1  UNL1        0.0943
     14 C          65.9464   91.7793   15.4564 C.3     1  UNL1        0.0327
     15 C          67.9916   92.8284   14.2454 C.2     1  UNL1        0.3167
     16 O          69.1735   92.2375   13.5355 O.2     1  UNL1       -0.2501
     17 C          69.1209   94.1936   16.1457 C.3     1  UNL1        0.2556
     18 O          68.1409   94.1083   15.0133 O.3     1  UNL1       -0.4444
     19 C          60.1985   88.7574    8.7051 C.3     1  UNL1        0.0884
     20 S          60.0568   87.3266    8.2777 S.3     1  UNL1       -0.1088
     21 C          61.1091   86.3247    8.6507 C.ar    1  UNL1        0.0261
     22 C          61.9495   85.6874    7.5841 C.ar    1  UNL1        0.0077
     23 C          63.0017   84.6856    7.9570 C.ar    1  UNL1        0.0202
     24 C          63.2135   84.3210    9.3965 C.ar    1  UNL1        0.0893
     25 N          64.1673   83.3737   10.0621 N.ar    1  UNL1       -0.2245
     26 C          63.9164   83.4255   11.5401 C.ar    1  UNL1        0.1567
     27 N          64.6461   82.6365   12.5865 N.pl3   1  UNL1       -0.3375
     28 S          62.8075   84.4048   11.7879 S.2     1  UNL1       -0.0520
     29 C          62.3731   84.9582   10.4631 C.ar    1  UNL1        0.0502
     30 C          61.3209   85.9600   10.0902 C.ar    1  UNL1        0.0142
     31 H          65.3633   82.0154   12.3237 H       1  UNL1        0.1442
     32 H          64.4079   82.7399   13.5362 H       1  UNL1        0.1442
@<TRIPOS>BOND
     1    17    18    1
     2    18    15    1
     3    15    16    2
     4    15     7    1
     5     7     8    1
     6     8     9    1
     7     9    10    1
     8    10    11   am
     9    11    12    2
    10    11     1    1
    11     1     2   ar
    12     2     3   ar
    13     3     4   ar
    14     4    19    1
    15    19    20    1
    16    20    21    1
    17    21    22   ar
    18    22    23   ar
    19    23    24   ar
    20    24    25   ar
    21    25    26   ar
    22    26    27    1
    23    26    28   ar
    24    28    29   ar
    25    29    30   ar
    26     4     5   ar
    27     5     6   ar
    28    10    13    1
    29    13    14    1
    30    14     7    1
    31     6     1   ar
    32    30    21   ar
    33    29    24   ar
    34    27    31    1
    35    27    32    1
@<TRIPOS>MOLECULE
*****
 32 35 0 0 0
SMALL
GASTEIGER

@<TRIPOS>ATOM
      1 C          64.9458   91.1881   15.5139 C.ar    1  UNL1        0.0536
      2 C          63.9590   91.1427   16.6427 C.ar    1  UNL1        0.0042
      3 C          63.1575   89.8989   16.8885 C.ar    1  UNL1       -0.0033
      4 C          63.3429   88.7004   16.0057 C.ar    1  UNL1       -0.0110
      5 C          64.3297   88.7458   14.8770 C.ar    1  UNL1       -0.0033
      6 C          65.1312   89.9896   14.6311 C.ar    1  UNL1        0.0042
      7 C          66.0677   94.1164   11.1075 C.3     1  UNL1        0.1025
      8 C          65.2661   92.8726   11.3534 C.3     1  UNL1        0.0327
      9 C          65.1594   92.3111   12.7403 C.3     1  UNL1        0.0943
     10 N          65.8541   92.9934   13.8812 N.am    1  UNL1       -0.2761
     11 C          65.7474   92.4319   15.2680 C.2     1  UNL1        0.2490
     12 O          66.4422   93.1142   16.4090 O.2     1  UNL1       -0.2699
     13 C          66.6557   94.2372   13.6353 C.3     1  UNL1        0.0943
     14 C          66.7624   94.7988   12.2485 C.3     1  UNL1        0.0327
     15 C          66.1744   94.6779    9.7207 C.2     1  UNL1        0.3167
     16 O          65.4006   95.9077    9.3478 O.2     1  UNL1       -0.2501
     17 C          68.2160   93.1732    9.1567 C.3     1  UNL1        0.2556
     18 O          67.0549   94.0097    8.7067 O.3     1  UNL1       -0.4444
     19 C          62.5413   87.4566   16.2516 C.3     1  UNL1        0.0884
     20 S          63.2293   86.1922   16.6736 S.3     1  UNL1       -0.1088
     21 C          63.5078   85.1174   15.6649 C.ar    1  UNL1        0.0261
     22 C          64.7288   85.2009   14.7977 C.ar    1  UNL1        0.0077
     23 C          65.0073   84.1261   13.7891 C.ar    1  UNL1        0.0202
     24 C          64.0647   82.9678   13.6478 C.ar    1  UNL1        0.0893
     25 N          64.0775   81.7674   12.7484 N.ar    1  UNL1       -0.2245
     26 C          62.8643   80.9420   13.0598 C.ar    1  UNL1        0.1567
     27 N          62.4809   79.6526   12.3959 N.pl3   1  UNL1       -0.3375
     28 S          62.1019   81.6323   14.1517 S.2     1  UNL1       -0.0520
     29 C          62.8438   82.8843   14.5151 C.ar    1  UNL1        0.0502
     30 C          62.5653   83.9591   15.5236 C.ar    1  UNL1        0.0142
     31 H          63.0491   79.2770   11.6851 H       1  UNL1        0.1442
     32 H          61.6611   79.1821   12.6710 H       1  UNL1        0.1442
@<TRIPOS>BOND
     1    17    18    1
     2    18    15    1
     3    15    16    2
     4    15     7    1
     5     7     8    1
     6     8     9    1
     7     9    10    1
     8    10    11   am
     9    11    12    2
    10    11     1    1
    11     1     2   ar
    12     2     3   ar
    13     3     4   ar
    14     4    19    1
    15    19    20    1
    16    20    21    1
    17    21    22   ar
    18    22    23   ar
    19    23    24   ar
    20    24    25   ar
    21    25    26   ar
    22    26    27    1
    23    26    28   ar
    24    28    29   ar
    25    29    30   ar
    26     4     5   ar
    27     5     6   ar
    28    10    13    1
    29    13    14    1
    30    14     7    1
    31     6     1   ar
    32    30    21   ar
    33    29    24   ar
    34    27    31    1
    35    27    32    1
