@<TRIPOS>MOLECULE
*****
 29 33 0 0 0
SMALL
GASTEIGER

@<TRIPOS>ATOM
      1 N          64.6344   85.0402   15.5752 N.3     1  UNL1       -0.3199
      2 C          64.1591   85.9562   14.4868 C.3     1  UNL1        0.0841
      3 C          64.6156   87.3848   14.4560 C.3     1  UNL1        0.0368
      4 C          64.1402   88.3008   13.3674 C.3     1  UNL1        0.0892
      5 C          63.2084   87.7883   12.3097 C.3     1  UNL1        0.1584
      6 O          62.7518   86.3597   12.3404 O.3     1  UNL1       -0.3490
      7 C          63.2272   85.4437   13.4289 C.3     1  UNL1        0.1538
      8 H          65.2561   85.5510   16.2021 H       1  UNL1        0.1189
      9 H          65.1378   84.2547   15.1628 H       1  UNL1        0.1189
     10 N          64.5968   89.7293   13.3367 N.3     1  UNL1       -0.2627
     11 C          65.1436   90.5054   14.4980 C.3     1  UNL1        0.1206
     12 C          65.4714   91.8883   14.0181 C.ar    1  UNL1        0.0971
     13 N          66.0119   93.2226   14.4393 N.ar    1  UNL1       -0.1498
     14 N          66.0017   94.1258   13.2418 N.ar    1  UNL1       -0.1303
     15 N          66.4197   95.5547   13.0588 N.ar    1  UNL1       -0.1434
     16 C          66.2908   96.2075   11.7145 C.ar    1  UNL1        0.1428
     17 C          65.7440   95.4314   10.5532 C.ar    1  UNL1        0.1231
     18 N          65.3260   94.0026   10.7362 N.ar    1  UNL1       -0.2221
     19 C          65.4548   93.3498   12.0805 C.ar    1  UNL1        0.1822
     20 C          65.1271   91.9669   12.5603 C.ar    1  UNL1        0.0480
     21 C          64.5865   90.6325   12.1391 C.3     1  UNL1        0.1039
     22 C          62.7707   84.0153   13.4596 C.ar    1  UNL1        0.0355
     23 C          63.0620   83.1097   12.2998 C.ar    1  UNL1        0.0300
     24 C          62.6055   81.6812   12.3304 C.ar    1  UNL1        0.1400
     25 F          62.8968   80.7757   11.1706 F       1  UNL1       -0.2042
     26 C          61.8576   81.1583   13.5209 C.ar    1  UNL1        0.0319
     27 C          61.5663   82.0638   14.6807 C.ar    1  UNL1        0.0317
     28 C          62.0228   83.4923   14.6501 C.ar    1  UNL1        0.1386
     29 F          61.7315   84.3978   15.8099 F       1  UNL1       -0.2044
@<TRIPOS>BOND
     1     2     1    1
     2     2     3    1
     3     3     4    1
     4     4    10    1
     5    10    11    1
     6    11    12    1
     7    12    13   ar
     8    13    14   ar
     9    14    15   ar
    10    15    16   ar
    11    16    17   ar
    12    17    18   ar
    13    18    19   ar
    14    19    20   ar
    15    20    21    1
    16     4     5    1
    17     5     6    1
    18     6     7    1
    19     7    22    1
    20    22    23   ar
    21    23    24   ar
    22    24    25    1
    23    24    26   ar
    24    26    27   ar
    25    27    28   ar
    26    28    29    1
    27     7     2    1
    28    28    22   ar
    29    21    10    1
    30    20    12   ar
    31    19    14   ar
    32     1     8    1
    33     1     9    1
@<TRIPOS>MOLECULE
*****
 29 33 0 0 0
SMALL
GASTEIGER

@<TRIPOS>ATOM
      1 N          64.2506   83.2822   15.6856 N.3     1  UNL1       -0.3199
      2 C          63.7367   84.2118   14.6266 C.3     1  UNL1        0.0841
      3 C          64.1517   85.6532   14.6280 C.3     1  UNL1        0.0368
      4 C          63.6377   86.5828   13.5689 C.3     1  UNL1        0.0892
      5 C          62.7086   86.0709   12.5084 C.3     1  UNL1        0.1584
      6 O          62.2936   84.6294   12.5068 O.3     1  UNL1       -0.3490
      7 C          62.8076   83.6998   13.5660 C.3     1  UNL1        0.1538
      8 H          64.8647   83.7944   16.3188 H       1  UNL1        0.1189
      9 H          64.7714   82.5224   15.2475 H       1  UNL1        0.1189
     10 N          64.0527   88.0242   13.5704 N.3     1  UNL1       -0.2627
     11 C          63.5150   89.0975   12.6710 C.3     1  UNL1        0.1206
     12 C          64.2083   90.3820   13.0163 C.ar    1  UNL1        0.0971
     13 N          64.3045   91.8392   12.6739 N.ar    1  UNL1       -0.1498
     14 N          65.3301   92.4605   13.5750 N.ar    1  UNL1       -0.1303
     15 N          65.8439   93.8648   13.6928 N.ar    1  UNL1       -0.1434
     16 C          66.8953   94.1959   14.7101 C.ar    1  UNL1        0.1428
     17 C          67.4330   93.1226   15.6095 C.ar    1  UNL1        0.1231
     18 N          66.9193   91.7183   15.4917 N.ar    1  UNL1       -0.2221
     19 C          65.8678   91.3872   14.4745 C.ar    1  UNL1        0.1822
     20 C          65.1745   90.1027   14.1292 C.ar    1  UNL1        0.0480
     21 C          65.0784   88.6454   14.4717 C.3     1  UNL1        0.1039
     22 C          62.3925   82.2585   13.5644 C.ar    1  UNL1        0.0355
     23 C          61.0645   81.8599   14.1366 C.ar    1  UNL1        0.0300
     24 C          60.6493   80.4185   14.1351 C.ar    1  UNL1        0.1400
     25 F          59.3212   80.0198   14.7073 F       1  UNL1       -0.2042
     26 C          61.5622   79.3757   13.5614 C.ar    1  UNL1        0.0319
     27 C          62.8903   79.7743   12.9892 C.ar    1  UNL1        0.0317
     28 C          63.3055   81.2157   12.9907 C.ar    1  UNL1        0.1386
     29 F          64.6335   81.6143   12.4186 F       1  UNL1       -0.2044
@<TRIPOS>BOND
     1     2     1    1
     2     2     3    1
     3     3     4    1
     4     4    10    1
     5    10    11    1
     6    11    12    1
     7    12    13   ar
     8    13    14   ar
     9    14    15   ar
    10    15    16   ar
    11    16    17   ar
    12    17    18   ar
    13    18    19   ar
    14    19    20   ar
    15    20    21    1
    16     4     5    1
    17     5     6    1
    18     6     7    1
    19     7    22    1
    20    22    23   ar
    21    23    24   ar
    22    24    25    1
    23    24    26   ar
    24    26    27   ar
    25    27    28   ar
    26    28    29    1
    27     7     2    1
    28    28    22   ar
    29    21    10    1
    30    20    12   ar
    31    19    14   ar
    32     1     8    1
    33     1     9    1
@<TRIPOS>MOLECULE
*****
 29 33 0 0 0
SMALL
GASTEIGER

@<TRIPOS>ATOM
      1 N          64.3758   83.5648   15.6845 N.3     1  UNL1       -0.3199
      2 C          63.8889   84.5473   14.6611 C.3     1  UNL1        0.0841
      3 C          64.3233   85.9812   14.7316 C.3     1  UNL1        0.0368
      4 C          63.8363   86.9637   13.7080 C.3     1  UNL1        0.0892
      5 C          62.9148   86.5122   12.6140 C.3     1  UNL1        0.1584
      6 O          62.4803   85.0781   12.5434 O.3     1  UNL1       -0.3490
      7 C          62.9673   84.0957   13.5670 C.3     1  UNL1        0.1538
      8 H          64.9881   84.0400   16.3476 H       1  UNL1        0.1189
      9 H          64.8922   82.8178   15.2200 H       1  UNL1        0.1189
     10 N          64.2708   88.3977   13.7785 N.3     1  UNL1       -0.2627
     11 C          64.6133   89.1548   15.0273 C.3     1  UNL1        0.1206
     12 C          64.9932   90.5513   14.6331 C.ar    1  UNL1        0.0971
     13 N          65.4397   91.8824   15.1613 N.ar    1  UNL1       -0.1498
     14 N          65.6079   92.8110   13.9953 N.ar    1  UNL1       -0.1303
     15 N          66.0287   94.2482   13.9094 N.ar    1  UNL1       -0.1434
     16 C          66.1069   94.9282   12.5748 C.ar    1  UNL1        0.1428
     17 C          65.7643   94.1711   11.3260 C.ar    1  UNL1        0.1231
     18 N          65.3435   92.7339   11.4119 N.ar    1  UNL1       -0.2221
     19 C          65.2653   92.0539   12.7466 C.ar    1  UNL1        0.1822
     20 C          64.8854   90.6573   13.1408 C.ar    1  UNL1        0.0480
     21 C          64.4389   89.3262   12.6125 C.3     1  UNL1        0.1039
     22 C          62.5328   82.6618   13.4964 C.ar    1  UNL1        0.0355
     23 C          61.2692   82.2267   14.1775 C.ar    1  UNL1        0.0300
     24 C          60.8346   80.7928   14.1070 C.ar    1  UNL1        0.1400
     25 F          59.5709   80.3577   14.7881 F       1  UNL1       -0.2042
     26 C          61.6637   79.7939   13.3554 C.ar    1  UNL1        0.0319
     27 C          62.9274   80.2291   12.6743 C.ar    1  UNL1        0.0317
     28 C          63.3619   81.6630   12.7448 C.ar    1  UNL1        0.1386
     29 F          64.6256   82.0981   12.0638 F       1  UNL1       -0.2044
@<TRIPOS>BOND
     1     2     1    1
     2     2     3    1
     3     3     4    1
     4     4    10    1
     5    10    11    1
     6    11    12    1
     7    12    13   ar
     8    13    14   ar
     9    14    15   ar
    10    15    16   ar
    11    16    17   ar
    12    17    18   ar
    13    18    19   ar
    14    19    20   ar
    15    20    21    1
    16     4     5    1
    17     5     6    1
    18     6     7    1
    19     7    22    1
    20    22    23   ar
    21    23    24   ar
    22    24    25    1
    23    24    26   ar
    24    26    27   ar
    25    27    28   ar
    26    28    29    1
    27     7     2    1
    28    28    22   ar
    29    21    10    1
    30    20    12   ar
    31    19    14   ar
    32     1     8    1
    33     1     9    1
@<TRIPOS>MOLECULE
*****
 29 33 0 0 0
SMALL
GASTEIGER

@<TRIPOS>ATOM
      1 N          70.0298   77.7819   11.5827 N.3     1  UNL1       -0.3199
      2 C          71.0993   77.1997   12.4583 C.3     1  UNL1        0.0841
      3 C          70.7904   76.0264   13.3403 C.3     1  UNL1        0.0368
      4 C          71.8602   75.4441   14.2160 C.3     1  UNL1        0.0892
      5 C          73.2388   76.0352   14.2096 C.3     1  UNL1        0.1584
      6 O          73.5477   77.2085   13.3276 O.3     1  UNL1       -0.3490
      7 C          72.4780   77.7908   12.4519 C.3     1  UNL1        0.1538
      8 H          69.1626   77.2609   11.7130 H       1  UNL1        0.1189
      9 H          70.3193   77.7216   10.6065 H       1  UNL1        0.1189
     10 N          71.5513   74.2708   15.0980 N.3     1  UNL1       -0.2627
     11 C          70.6636   74.2862   16.3070 C.3     1  UNL1        0.1206
     12 C          70.6396   72.9010   16.8820 C.ar    1  UNL1        0.0971
     13 N          70.0761   72.0544   17.9847 N.ar    1  UNL1       -0.1498
     14 N          70.6007   70.6596   17.8125 N.ar    1  UNL1       -0.1303
     15 N          70.3847   69.4017   18.6004 N.ar    1  UNL1       -0.1434
     16 C          71.0565   68.1284   18.1792 C.ar    1  UNL1        0.1428
     17 C          71.9441   68.1130   16.9702 C.ar    1  UNL1        0.1231
     18 N          72.1601   69.3709   16.1823 N.ar    1  UNL1       -0.2221
     19 C          71.4884   70.6443   16.6034 C.ar    1  UNL1        0.1822
     20 C          71.5124   72.0295   16.0284 C.ar    1  UNL1        0.0480
     21 C          72.0759   72.8761   14.9257 C.3     1  UNL1        0.1039
     22 C          72.7870   78.9640   11.5700 C.ar    1  UNL1        0.0355
     23 C          72.9085   78.7759   10.0868 C.ar    1  UNL1        0.0300
     24 C          73.2175   79.9491    9.2048 C.ar    1  UNL1        0.1400
     25 F          73.3391   79.7610    7.7216 F       1  UNL1       -0.2042
     26 C          73.4049   81.3105    9.8059 C.ar    1  UNL1        0.0319
     27 C          73.2833   81.4987   11.2891 C.ar    1  UNL1        0.0317
     28 C          72.9744   80.3254   12.1711 C.ar    1  UNL1        0.1386
     29 F          72.8528   80.5136   13.6543 F       1  UNL1       -0.2044
@<TRIPOS>BOND
     1     2     1    1
     2     2     3    1
     3     3     4    1
     4     4    10    1
     5    10    11    1
     6    11    12    1
     7    12    13   ar
     8    13    14   ar
     9    14    15   ar
    10    15    16   ar
    11    16    17   ar
    12    17    18   ar
    13    18    19   ar
    14    19    20   ar
    15    20    21    1
    16     4     5    1
    17     5     6    1
    18     6     7    1
    19     7    22    1
    20    22    23   ar
    21    23    24   ar
    22    24    25    1
    23    24    26   ar
    24    26    27   ar
    25    27    28   ar
    26    28    29    1
    27     7     2    1
    28    28    22   ar
    29    21    10    1
    30    20    12   ar
    31    19    14   ar
    32     1     8    1
    33     1     9    1
@<TRIPOS>MOLECULE
*****
 29 33 0 0 0
SMALL
GASTEIGER

@<TRIPOS>ATOM
      1 N          69.8400   78.1362   11.9149 N.3     1  UNL1       -0.3199
      2 C          71.1042   77.3292   11.9306 C.3     1  UNL1        0.0841
      3 C          71.1266   75.9831   12.5919 C.3     1  UNL1        0.0368
      4 C          72.3910   75.1761   12.6075 C.3     1  UNL1        0.0892
      5 C          73.6329   75.7153   11.9619 C.3     1  UNL1        0.1584
      6 O          73.6105   77.0615   11.3006 O.3     1  UNL1       -0.3490
      7 C          72.3462   77.8685   11.2850 C.3     1  UNL1        0.1538
      8 H          69.1019   77.6213   12.3951 H       1  UNL1        0.1189
      9 H          69.5601   78.3109   10.9498 H       1  UNL1        0.1189
     10 N          72.4134   73.8299   13.2688 N.3     1  UNL1       -0.2627
     11 C          73.1068   72.6047   12.7511 C.3     1  UNL1        0.1206
     12 C          72.8682   71.4902   13.7262 C.ar    1  UNL1        0.0971
     13 N          73.1494   70.0441   14.0090 N.ar    1  UNL1       -0.1498
     14 N          72.4823   69.6868   15.3041 N.ar    1  UNL1       -0.1303
     15 N          72.4167   68.4041   16.0788 N.ar    1  UNL1       -0.1434
     16 C          71.6577   68.3466   17.3713 C.ar    1  UNL1        0.1428
     17 C          70.9643   69.5718   17.8891 C.ar    1  UNL1        0.1231
     18 N          71.0299   70.8545   17.1143 N.ar    1  UNL1       -0.2221
     19 C          71.7889   70.9120   15.8218 C.ar    1  UNL1        0.1822
     20 C          72.0274   72.0265   14.8467 C.ar    1  UNL1        0.0480
     21 C          71.7463   73.4726   14.5640 C.3     1  UNL1        0.1039
     22 C          72.3238   79.2146   10.6237 C.ar    1  UNL1        0.0355
     23 C          72.1048   79.3195    9.1435 C.ar    1  UNL1        0.0300
     24 C          72.0825   80.6657    8.4821 C.ar    1  UNL1        0.1400
     25 F          71.8635   80.7705    7.0019 F       1  UNL1       -0.2042
     26 C          72.2791   81.9069    9.3010 C.ar    1  UNL1        0.0319
     27 C          72.4981   81.8020   10.7812 C.ar    1  UNL1        0.0317
     28 C          72.5205   80.4559   11.4426 C.ar    1  UNL1        0.1386
     29 F          72.7395   80.3510   12.9228 F       1  UNL1       -0.2044
@<TRIPOS>BOND
     1     2     1    1
     2     2     3    1
     3     3     4    1
     4     4    10    1
     5    10    11    1
     6    11    12    1
     7    12    13   ar
     8    13    14   ar
     9    14    15   ar
    10    15    16   ar
    11    16    17   ar
    12    17    18   ar
    13    18    19   ar
    14    19    20   ar
    15    20    21    1
    16     4     5    1
    17     5     6    1
    18     6     7    1
    19     7    22    1
    20    22    23   ar
    21    23    24   ar
    22    24    25    1
    23    24    26   ar
    24    26    27   ar
    25    27    28   ar
    26    28    29    1
    27     7     2    1
    28    28    22   ar
    29    21    10    1
    30    20    12   ar
    31    19    14   ar
    32     1     8    1
    33     1     9    1
@<TRIPOS>MOLECULE
*****
 29 33 0 0 0
SMALL
GASTEIGER

@<TRIPOS>ATOM
      1 N          61.9441   86.2036   11.7283 N.3     1  UNL1       -0.3199
      2 C          62.3577   87.6100   11.4110 C.3     1  UNL1        0.0841
      3 C          63.1700   88.3939   12.3988 C.3     1  UNL1        0.0368
      4 C          63.5836   89.8004   12.0814 C.3     1  UNL1        0.0892
      5 C          63.1849   90.4230   10.7763 C.3     1  UNL1        0.1584
      6 O          62.3726   89.6391    9.7884 O.3     1  UNL1       -0.3490
      7 C          61.9589   88.2326   10.1058 C.3     1  UNL1        0.1538
      8 H          62.2985   85.9444   12.6489 H       1  UNL1        0.1189
      9 H          62.3263   85.5702   11.0261 H       1  UNL1        0.1189
     10 N          64.3959   90.5843   13.0691 N.3     1  UNL1       -0.2627
     11 C          63.9284   91.0652   14.4108 C.3     1  UNL1        0.1206
     12 C          65.0620   91.8031   15.0595 C.ar    1  UNL1        0.0971
     13 N          65.4737   92.5563   16.2896 N.ar    1  UNL1       -0.1498
     14 N          66.8961   92.9969   16.1091 N.ar    1  UNL1       -0.1303
     15 N          67.8260   93.7739   16.9930 N.ar    1  UNL1       -0.1434
     16 C          69.2234   94.0699   16.5353 C.ar    1  UNL1        0.1428
     17 C          69.6909   93.5890   15.1936 C.ar    1  UNL1        0.1231
     18 N          68.7610   92.8120   14.3096 N.ar    1  UNL1       -0.2221
     19 C          67.3635   92.5159   14.7673 C.ar    1  UNL1        0.1822
     20 C          66.2300   91.7781   14.1187 C.ar    1  UNL1        0.0480
     21 C          65.8184   91.0249   12.8885 C.3     1  UNL1        0.1039
     22 C          61.1467   87.4488    9.1180 C.ar    1  UNL1        0.0355
     23 C          61.7660   86.2964    8.3844 C.ar    1  UNL1        0.0300
     24 C          60.9538   85.5125    7.3966 C.ar    1  UNL1        0.1400
     25 F          61.5731   84.3600    6.6629 F       1  UNL1       -0.2042
     26 C          59.5222   85.8811    7.1424 C.ar    1  UNL1        0.0319
     27 C          58.9028   87.0336    7.8760 C.ar    1  UNL1        0.0317
     28 C          59.7151   87.8175    8.8639 C.ar    1  UNL1        0.1386
     29 F          59.0957   88.9699    9.5975 F       1  UNL1       -0.2044
@<TRIPOS>BOND
     1     2     1    1
     2     2     3    1
     3     3     4    1
     4     4    10    1
     5    10    11    1
     6    11    12    1
     7    12    13   ar
     8    13    14   ar
     9    14    15   ar
    10    15    16   ar
    11    16    17   ar
    12    17    18   ar
    13    18    19   ar
    14    19    20   ar
    15    20    21    1
    16     4     5    1
    17     5     6    1
    18     6     7    1
    19     7    22    1
    20    22    23   ar
    21    23    24   ar
    22    24    25    1
    23    24    26   ar
    24    26    27   ar
    25    27    28   ar
    26    28    29    1
    27     7     2    1
    28    28    22   ar
    29    21    10    1
    30    20    12   ar
    31    19    14   ar
    32     1     8    1
    33     1     9    1
@<TRIPOS>MOLECULE
*****
 29 33 0 0 0
SMALL
GASTEIGER

@<TRIPOS>ATOM
      1 N          54.7864   93.2689   -1.7954 N.3     1  UNL1       -0.3199
      2 C          55.8079   94.3644   -1.8755 C.3     1  UNL1        0.0841
      3 C          57.1630   94.1727   -1.2617 C.3     1  UNL1        0.0368
      4 C          58.1845   95.2683   -1.3419 C.3     1  UNL1        0.0892
      5 C          57.8508   96.5555   -2.0358 C.3     1  UNL1        0.1584
      6 O          56.4955   96.7473   -2.6497 O.3     1  UNL1       -0.3490
      7 C          55.4741   95.6517   -2.5695 C.3     1  UNL1        0.1538
      8 H          55.1800   92.4732   -1.2932 H       1  UNL1        0.1189
      9 H          54.5232   92.9800   -2.7375 H       1  UNL1        0.1189
     10 N          59.5397   95.0766   -0.7281 N.3     1  UNL1       -0.2627
     11 C          60.4142   93.8677   -0.8817 C.3     1  UNL1        0.1206
     12 C          61.6733   94.1042   -0.1014 C.ar    1  UNL1        0.0971
     13 N          62.9919   93.5032    0.2859 N.ar    1  UNL1       -0.1498
     14 N          63.7105   94.4869    1.1611 N.ar    1  UNL1       -0.1303
     15 N          65.0481   94.4379    1.8380 N.ar    1  UNL1       -0.1434
     16 C          65.5113   95.5979    2.6685 C.ar    1  UNL1        0.1428
     17 C          64.6367   96.8069    2.8221 C.ar    1  UNL1        0.1231
     18 N          63.2991   96.8559    2.1452 N.ar    1  UNL1       -0.2221
     19 C          62.8360   95.6959    1.3147 C.ar    1  UNL1        0.1822
     20 C          61.5769   95.4593    0.5344 C.ar    1  UNL1        0.0480
     21 C          60.2582   96.0604    0.1472 C.3     1  UNL1        0.1039
     22 C          54.1190   95.8434   -3.1833 C.ar    1  UNL1        0.0355
     23 C          53.9757   95.9249   -4.6743 C.ar    1  UNL1        0.0300
     24 C          52.6206   96.1166   -5.2882 C.ar    1  UNL1        0.1400
     25 F          52.4773   96.1980   -6.7791 F       1  UNL1       -0.2042
     26 C          51.4087   96.2269   -4.4111 C.ar    1  UNL1        0.0319
     27 C          51.5520   96.1455   -2.9202 C.ar    1  UNL1        0.0317
     28 C          52.9071   95.9537   -2.3063 C.ar    1  UNL1        0.1386
     29 F          53.0504   95.8723   -0.8153 F       1  UNL1       -0.2044
@<TRIPOS>BOND
     1     2     1    1
     2     2     3    1
     3     3     4    1
     4     4    10    1
     5    10    11    1
     6    11    12    1
     7    12    13   ar
     8    13    14   ar
     9    14    15   ar
    10    15    16   ar
    11    16    17   ar
    12    17    18   ar
    13    18    19   ar
    14    19    20   ar
    15    20    21    1
    16     4     5    1
    17     5     6    1
    18     6     7    1
    19     7    22    1
    20    22    23   ar
    21    23    24   ar
    22    24    25    1
    23    24    26   ar
    24    26    27   ar
    25    27    28   ar
    26    28    29    1
    27     7     2    1
    28    28    22   ar
    29    21    10    1
    30    20    12   ar
    31    19    14   ar
    32     1     8    1
    33     1     9    1
@<TRIPOS>MOLECULE
*****
 29 33 0 0 0
SMALL
GASTEIGER

@<TRIPOS>ATOM
      1 N          58.9361   87.2565    6.3015 N.3     1  UNL1       -0.3199
      2 C          59.7130   87.9354    7.3901 C.3     1  UNL1        0.0841
      3 C          60.3452   87.1214    8.4800 C.3     1  UNL1        0.0368
      4 C          61.1222   87.8005    9.5687 C.3     1  UNL1        0.0892
      5 C          61.2670   89.2935    9.5675 C.3     1  UNL1        0.1584
      6 O          60.6348   90.1075    8.4776 O.3     1  UNL1       -0.3490
      7 C          59.8578   89.4284    7.3889 C.3     1  UNL1        0.1538
      8 H          58.9403   86.2486    6.4586 H       1  UNL1        0.1189
      9 H          59.3648   87.4617    5.3990 H       1  UNL1        0.1189
     10 N          61.7543   86.9865   10.6586 N.3     1  UNL1       -0.2627
     11 C          62.6118   87.5156   11.7698 C.3     1  UNL1        0.1206
     12 C          63.0274   86.3566   12.6266 C.ar    1  UNL1        0.0971
     13 N          63.8142   85.9673   13.8429 N.ar    1  UNL1       -0.1498
     14 N          63.6999   84.4814   14.0129 N.ar    1  UNL1       -0.1303
     15 N          64.2658   83.5417   15.0360 N.ar    1  UNL1       -0.1434
     16 C          63.9741   82.0730   14.9479 C.ar    1  UNL1        0.1428
     17 C          63.1166   81.5439   13.8367 C.ar    1  UNL1        0.1231
     18 N          62.5507   82.4836   12.8136 N.ar    1  UNL1       -0.2221
     19 C          62.8424   83.9523   12.9017 C.ar    1  UNL1        0.1822
     20 C          62.4268   85.1113   12.0450 C.ar    1  UNL1        0.0480
     21 C          61.6399   85.5006   10.8286 C.3     1  UNL1        0.1039
     22 C          59.2257   90.2424    6.2991 C.ar    1  UNL1        0.0355
     23 C          57.7317   90.3375    6.2044 C.ar    1  UNL1        0.0300
     24 C          57.0995   91.1514    5.1146 C.ar    1  UNL1        0.1400
     25 F          55.6055   91.2465    5.0199 F       1  UNL1       -0.2042
     26 C          57.9613   91.8704    4.1194 C.ar    1  UNL1        0.0319
     27 C          59.4553   91.7753    4.2141 C.ar    1  UNL1        0.0317
     28 C          60.0875   90.9613    5.3039 C.ar    1  UNL1        0.1386
     29 F          61.5816   90.8663    5.3986 F       1  UNL1       -0.2044
@<TRIPOS>BOND
     1     2     1    1
     2     2     3    1
     3     3     4    1
     4     4    10    1
     5    10    11    1
     6    11    12    1
     7    12    13   ar
     8    13    14   ar
     9    14    15   ar
    10    15    16   ar
    11    16    17   ar
    12    17    18   ar
    13    18    19   ar
    14    19    20   ar
    15    20    21    1
    16     4     5    1
    17     5     6    1
    18     6     7    1
    19     7    22    1
    20    22    23   ar
    21    23    24   ar
    22    24    25    1
    23    24    26   ar
    24    26    27   ar
    25    27    28   ar
    26    28    29    1
    27     7     2    1
    28    28    22   ar
    29    21    10    1
    30    20    12   ar
    31    19    14   ar
    32     1     8    1
    33     1     9    1
@<TRIPOS>MOLECULE
*****
 29 33 0 0 0
SMALL
GASTEIGER

@<TRIPOS>ATOM
      1 N          55.2936   93.4424   -5.4136 N.3     1  UNL1       -0.3199
      2 C          55.8161   94.3228   -4.3174 C.3     1  UNL1        0.0841
      3 C          57.0289   93.9097   -3.5373 C.3     1  UNL1        0.0368
      4 C          57.5513   94.7903   -2.4411 C.3     1  UNL1        0.0892
      5 C          56.8610   96.0839   -2.1250 C.3     1  UNL1        0.1584
      6 O          55.6482   96.4971   -2.9051 O.3     1  UNL1       -0.3490
      7 C          55.1257   95.6165   -4.0013 C.3     1  UNL1        0.1538
      8 H          55.8796   92.6110   -5.4904 H       1  UNL1        0.1189
      9 H          55.3101   93.9527   -6.2966 H       1  UNL1        0.1189
     10 N          58.7641   94.3772   -1.6610 N.3     1  UNL1       -0.2627
     11 C          58.8087   93.3265   -0.5915 C.3     1  UNL1        0.1206
     12 C          60.2174   93.2423   -0.0830 C.ar    1  UNL1        0.0971
     13 N          61.1156   92.5408    0.8923 N.ar    1  UNL1       -0.1498
     14 N          62.4967   93.1060    0.7398 N.ar    1  UNL1       -0.1303
     15 N          63.7891   92.7996    1.4367 N.ar    1  UNL1       -0.1434
     16 C          65.0369   93.5439    1.0640 C.ar    1  UNL1        0.1428
     17 C          64.9923   94.5946   -0.0056 C.ar    1  UNL1        0.1231
     18 N          63.6998   94.9010   -0.7024 N.ar    1  UNL1       -0.2221
     19 C          62.4521   94.1567   -0.3297 C.ar    1  UNL1        0.1822
     20 C          61.0434   94.2409   -0.8382 C.ar    1  UNL1        0.0480
     21 C          60.1452   94.9424   -1.8136 C.3     1  UNL1        0.1039
     22 C          53.9130   96.0296   -4.7813 C.ar    1  UNL1        0.0355
     23 C          52.5760   96.1040   -4.1054 C.ar    1  UNL1        0.0300
     24 C          51.3632   96.5171   -4.8854 C.ar    1  UNL1        0.1400
     25 F          50.0262   96.5915   -4.2094 F       1  UNL1       -0.2042
     26 C          51.4874   96.8559   -6.3413 C.ar    1  UNL1        0.0319
     27 C          52.8244   96.7816   -7.0173 C.ar    1  UNL1        0.0317
     28 C          54.0372   96.3684   -6.2373 C.ar    1  UNL1        0.1386
     29 F          55.3742   96.2941   -6.9132 F       1  UNL1       -0.2044
@<TRIPOS>BOND
     1     2     1    1
     2     2     3    1
     3     3     4    1
     4     4    10    1
     5    10    11    1
     6    11    12    1
     7    12    13   ar
     8    13    14   ar
     9    14    15   ar
    10    15    16   ar
    11    16    17   ar
    12    17    18   ar
    13    18    19   ar
    14    19    20   ar
    15    20    21    1
    16     4     5    1
    17     5     6    1
    18     6     7    1
    19     7    22    1
    20    22    23   ar
    21    23    24   ar
    22    24    25    1
    23    24    26   ar
    24    26    27   ar
    25    27    28   ar
    26    28    29    1
    27     7     2    1
    28    28    22   ar
    29    21    10    1
    30    20    12   ar
    31    19    14   ar
    32     1     8    1
    33     1     9    1
