@<TRIPOS>MOLECULE
*****
 44 48 0 0 0
SMALL
GASTEIGER

@<TRIPOS>ATOM
      1 C          61.4979   89.2071   11.2243 C.ar    1  UNL1        0.2006
      2 N          62.0864   87.9230   11.7289 N.ar    1  UNL1       -0.2000
      3 C          61.9223   86.6601   10.9363 C.ar    1  UNL1        0.1379
      4 C          61.1696   86.6814    9.6390 C.ar    1  UNL1        0.0673
      5 C          60.8481   85.6029    8.6474 C.ar    1  UNL1        0.0265
      6 C          60.0607   86.2204    7.5299 C.ar    1  UNL1        0.1007
      7 N          59.8957   87.6806    7.8309 N.ar    1  UNL1       -0.2268
      8 C          60.5810   87.9655    9.1344 C.ar    1  UNL1        0.1452
      9 N          60.7451   89.2284    9.9271 N.ar    1  UNL1       -0.3118
     10 H          60.3588   90.0712    9.5959 H       1  UNL1        0.1700
     11 N          61.6620   90.4700   12.0170 N.pl3   1  UNL1       -0.2816
     12 H          60.8752   91.0204   12.2345 H       1  UNL1        0.1551
     13 C          66.1602   92.9103   11.1163 C.3     1  UNL1        0.0307
     14 C          65.2740   92.1143   12.0279 C.ar    1  UNL1       -0.0244
     15 C          63.9111   91.6902   11.5667 C.ar    1  UNL1        0.0132
     16 C          63.0248   90.8941   12.4782 C.ar    1  UNL1        0.0845
     17 C          63.5014   90.5223   13.8510 C.ar    1  UNL1        0.1513
     18 C          64.8643   90.9465   14.3123 C.ar    1  UNL1        0.0336
     19 C          65.7505   91.7425   13.4007 C.ar    1  UNL1       -0.0233
     20 C          67.1134   92.1666   13.8619 C.3     1  UNL1        0.0249
     21 C          68.3366   91.6366   13.1742 C.3     1  UNL1        0.0215
     22 C          69.6994   92.0608   13.6354 C.3     1  UNL1        0.0689
     23 N          69.8390   93.0150   14.7844 N.3     1  UNL1       -0.2974
     24 C          68.6159   93.5450   15.4721 C.3     1  UNL1        0.0689
     25 C          67.2530   93.1208   15.0109 C.3     1  UNL1        0.0215
     26 H          70.3539   93.8232   14.4350 H       1  UNL1        0.1232
     27 O          62.6152   89.7263   14.7626 O.3     1  UNL1       -0.4779
     28 C          62.9704   89.5777   16.2123 C.3     1  UNL1        0.1662
     29 C          62.7860   88.2564   16.8980 C.3     1  UNL1        0.0472
     30 C          63.5102   90.7503   16.9763 C.3     1  UNL1        0.0472
     31 N          62.5110   85.3760   11.4410 N.pl3   1  UNL1       -0.2968
     32 H          62.3580   84.5373   10.9486 H       1  UNL1        0.1536
     33 C          63.3327   85.3698   12.6958 C.ar    1  UNL1        0.0667
     34 C          63.7004   86.6645   13.3581 C.ar    1  UNL1        0.0159
     35 C          64.5221   86.6582   14.6129 C.ar    1  UNL1        0.0014
     36 C          64.9761   85.3571   15.2056 C.ar    1  UNL1        0.0014
     37 C          64.6084   84.0624   14.5433 C.ar    1  UNL1        0.0196
     38 C          63.7867   84.0688   13.2884 C.ar    1  UNL1        0.1189
     39 S          63.4190   82.7741   12.6262 S.O2    1  UNL1        0.0082
     40 O          62.4232   82.5005   13.7140 O.2     1  UNL1       -0.1686
     41 O          64.4149   83.0477   11.5384 O.2     1  UNL1       -0.1686
     42 C          63.0514   81.4794   11.9640 C.3     1  UNL1        0.1340
     43 C          63.2327   81.3159   10.4840 C.3     1  UNL1        0.0257
     44 C          62.5023   80.3481   12.7818 C.3     1  UNL1        0.0257
@<TRIPOS>BOND
     1    13    14    1
     2    14    15   ar
     3    15    16   ar
     4    16    11    1
     5    11     1    1
     6     1     2   ar
     7     2     3   ar
     8     3    31    1
     9    31    33    1
    10    33    34   ar
    11    34    35   ar
    12    35    36   ar
    13    36    37   ar
    14    37    38   ar
    15    38    39    1
    16    39    40    2
    17    39    41    2
    18    39    42    1
    19    42    43    1
    20    42    44    1
    21     3     4   ar
    22     4     5   ar
    23     5     6   ar
    24     6     7   ar
    25     7     8   ar
    26     8     9   ar
    27    16    17   ar
    28    17    27    1
    29    27    28    1
    30    28    29    1
    31    28    30    1
    32    17    18   ar
    33    18    19   ar
    34    19    20    1
    35    20    21    1
    36    21    22    1
    37    22    23    1
    38    23    24    1
    39    24    25    1
    40    19    14   ar
    41    25    20    1
    42     9     1   ar
    43    38    33   ar
    44     8     4    1
    45    11    12    1
    46    31    32    1
    47     9    10    1
    48    23    26    1
@<TRIPOS>MOLECULE
*****
 44 48 0 0 0
SMALL
GASTEIGER

@<TRIPOS>ATOM
      1 C          63.7865   89.8913   15.7918 C.ar    1  UNL1        0.2006
      2 N          64.0074   88.9689   14.6298 N.ar    1  UNL1       -0.2000
      3 C          63.7431   87.4997   14.7775 C.ar    1  UNL1        0.1379
      4 C          63.2578   86.9530   16.0873 C.ar    1  UNL1        0.0673
      5 C          62.9145   85.5611   16.5285 C.ar    1  UNL1        0.0265
      6 C          62.4814   85.6233   17.9633 C.ar    1  UNL1        0.1007
      7 N          62.5570   87.0536   18.4088 N.ar    1  UNL1       -0.2268
      8 C          63.0369   87.8755   17.2493 C.ar    1  UNL1        0.1452
      9 N          63.3012   89.3446   17.1016 N.ar    1  UNL1       -0.3118
     10 H          63.1561   89.9500   17.8642 H       1  UNL1        0.1700
     11 N          64.0508   91.3604   15.6440 N.pl3   1  UNL1       -0.2816
     12 H          63.8008   91.9807   16.3666 H       1  UNL1        0.1551
     13 C          64.1629   91.7621   10.4646 C.3     1  UNL1        0.0307
     14 C          64.7520   92.0854   11.8056 C.ar    1  UNL1       -0.0244
     15 C          64.1068   91.5613   13.0543 C.ar    1  UNL1        0.0132
     16 C          64.6959   91.8845   14.3954 C.ar    1  UNL1        0.0845
     17 C          65.9302   92.7318   14.4878 C.ar    1  UNL1        0.1513
     18 C          66.5754   93.2559   13.2391 C.ar    1  UNL1        0.0336
     19 C          65.9864   92.9327   11.8981 C.ar    1  UNL1       -0.0233
     20 C          66.6315   93.4568   10.6495 C.3     1  UNL1        0.0249
     21 C          66.2510   94.8071   10.1187 C.3     1  UNL1        0.0215
     22 C          66.8962   95.3312    8.8700 C.3     1  UNL1        0.0689
     23 N          67.9218   94.5049    8.1522 N.3     1  UNL1       -0.2974
     24 C          68.3024   93.1546    8.6831 C.3     1  UNL1        0.0689
     25 C          67.6572   92.6305    9.9317 C.3     1  UNL1        0.0215
     26 H          68.7769   95.0601    8.1196 H       1  UNL1        0.1232
     27 O          66.5194   93.0550   15.8289 O.3     1  UNL1       -0.4779
     28 C          68.0078   93.0517   16.0147 C.3     1  UNL1        0.1662
     29 C          68.7704   94.3429   15.9838 C.3     1  UNL1        0.0472
     30 C          68.7336   91.7570   16.2315 C.3     1  UNL1        0.0472
     31 N          63.9642   86.5773   13.6154 N.pl3   1  UNL1       -0.2968
     32 H          64.6562   85.8789   13.6660 H       1  UNL1        0.1536
     33 C          63.1309   86.7191   12.3763 C.ar    1  UNL1        0.0667
     34 C          62.8680   88.0791   11.8007 C.ar    1  UNL1        0.0159
     35 C          62.0347   88.2208   10.5616 C.ar    1  UNL1        0.0014
     36 C          61.4642   87.0025    9.8980 C.ar    1  UNL1        0.0014
     37 C          61.7270   85.6425   10.4736 C.ar    1  UNL1        0.0196
     38 C          62.5603   85.5008   11.7127 C.ar    1  UNL1        0.1189
     39 S          62.8232   84.1408   12.2883 S.O2    1  UNL1        0.0082
     40 O          63.5837   83.7643   11.0515 O.2     1  UNL1       -0.1686
     41 O          62.0627   84.5173   13.5252 O.2     1  UNL1       -0.1686
     42 C          63.0860   82.7808   12.8639 C.3     1  UNL1        0.1340
     43 C          62.8423   81.5553   12.0341 C.3     1  UNL1        0.0257
     44 C          63.5926   82.6464   14.2694 C.3     1  UNL1        0.0257
@<TRIPOS>BOND
     1    13    14    1
     2    14    15   ar
     3    15    16   ar
     4    16    11    1
     5    11     1    1
     6     1     2   ar
     7     2     3   ar
     8     3    31    1
     9    31    33    1
    10    33    34   ar
    11    34    35   ar
    12    35    36   ar
    13    36    37   ar
    14    37    38   ar
    15    38    39    1
    16    39    40    2
    17    39    41    2
    18    39    42    1
    19    42    43    1
    20    42    44    1
    21     3     4   ar
    22     4     5   ar
    23     5     6   ar
    24     6     7   ar
    25     7     8   ar
    26     8     9   ar
    27    16    17   ar
    28    17    27    1
    29    27    28    1
    30    28    29    1
    31    28    30    1
    32    17    18   ar
    33    18    19   ar
    34    19    20    1
    35    20    21    1
    36    21    22    1
    37    22    23    1
    38    23    24    1
    39    24    25    1
    40    19    14   ar
    41    25    20    1
    42     9     1   ar
    43    38    33   ar
    44     8     4    1
    45    11    12    1
    46    31    32    1
    47     9    10    1
    48    23    26    1
@<TRIPOS>MOLECULE
*****
 44 48 0 0 0
SMALL
GASTEIGER

@<TRIPOS>ATOM
      1 C          61.2861   89.7189   11.1628 C.ar    1  UNL1        0.2006
      2 N          61.5110   88.3777   11.7955 N.ar    1  UNL1       -0.2000
      3 C          61.1681   87.1263   11.0427 C.ar    1  UNL1        0.1379
      4 C          60.6002   87.2163    9.6574 C.ar    1  UNL1        0.0673
      5 C          60.1695   86.1641    8.6789 C.ar    1  UNL1        0.0265
      6 C          59.6784   86.8552    7.4414 C.ar    1  UNL1        0.1007
      7 N          59.8055   88.3344    7.6551 N.ar    1  UNL1       -0.2268
      8 C          60.3752   88.5576    9.0247 C.ar    1  UNL1        0.1452
      9 N          60.7182   89.8089    9.7774 N.ar    1  UNL1       -0.3118
     10 H          60.5705   90.6893    9.3622 H       1  UNL1        0.1700
     11 N          61.6290   90.9703   11.9155 N.pl3   1  UNL1       -0.2816
     12 H          60.9236   91.6203   12.1373 H       1  UNL1        0.1551
     13 C          66.3004   93.0224   10.9318 C.3     1  UNL1        0.0307
     14 C          65.3825   92.2573   11.8385 C.ar    1  UNL1       -0.0244
     15 C          63.9648   91.9963   11.4237 C.ar    1  UNL1        0.0132
     16 C          63.0467   91.2312   12.3303 C.ar    1  UNL1        0.0845
     17 C          63.5464   90.7270   13.6517 C.ar    1  UNL1        0.1513
     18 C          64.9642   90.9880   14.0665 C.ar    1  UNL1        0.0336
     19 C          65.8821   91.7530   13.1599 C.ar    1  UNL1       -0.0233
     20 C          67.2998   92.0140   13.5747 C.3     1  UNL1        0.0249
     21 C          67.5843   92.7910   14.8258 C.3     1  UNL1        0.0215
     22 C          69.0020   93.0520   15.2406 C.3     1  UNL1        0.0689
     23 N          70.1352   92.5358   14.4042 N.3     1  UNL1       -0.2974
     24 C          69.8507   91.7588   13.1531 C.3     1  UNL1        0.0689
     25 C          68.4330   91.4978   12.7383 C.3     1  UNL1        0.0215
     26 H          70.6936   91.9306   15.0062 H       1  UNL1        0.1232
     27 O          62.6285   89.9619   14.5583 O.3     1  UNL1       -0.4779
     28 C          63.0006   89.7482   15.9956 C.3     1  UNL1        0.1662
     29 C          62.8215   88.3979   16.6239 C.3     1  UNL1        0.0472
     30 C          63.5518   90.8847   16.8046 C.3     1  UNL1        0.0472
     31 N          61.3931   85.7850   11.6755 N.pl3   1  UNL1       -0.2968
     32 H          60.8201   85.4893   12.4195 H       1  UNL1        0.1536
     33 C          62.4910   84.8941   11.1747 C.ar    1  UNL1        0.0667
     34 C          62.6412   84.6435    9.7034 C.ar    1  UNL1        0.0159
     35 C          63.7392   83.7526    9.2026 C.ar    1  UNL1        0.0014
     36 C          64.6869   83.1124   10.1731 C.ar    1  UNL1        0.0014
     37 C          64.5367   83.3630   11.6444 C.ar    1  UNL1        0.0196
     38 C          63.4388   84.2539   12.1451 C.ar    1  UNL1        0.1189
     39 S          63.2886   84.5045   13.6164 S.O2    1  UNL1        0.0082
     40 O          62.9809   83.0524   13.8324 O.2     1  UNL1       -0.1686
     41 O          63.5963   85.9567   13.4004 O.2     1  UNL1       -0.1686
     42 C          63.1384   84.7552   15.0876 C.3     1  UNL1        0.1340
     43 C          61.8351   84.4612   15.7694 C.3     1  UNL1        0.0257
     44 C          64.2917   85.2998   15.8772 C.3     1  UNL1        0.0257
@<TRIPOS>BOND
     1    13    14    1
     2    14    15   ar
     3    15    16   ar
     4    16    11    1
     5    11     1    1
     6     1     2   ar
     7     2     3   ar
     8     3    31    1
     9    31    33    1
    10    33    34   ar
    11    34    35   ar
    12    35    36   ar
    13    36    37   ar
    14    37    38   ar
    15    38    39    1
    16    39    40    2
    17    39    41    2
    18    39    42    1
    19    42    43    1
    20    42    44    1
    21     3     4   ar
    22     4     5   ar
    23     5     6   ar
    24     6     7   ar
    25     7     8   ar
    26     8     9   ar
    27    16    17   ar
    28    17    27    1
    29    27    28    1
    30    28    29    1
    31    28    30    1
    32    17    18   ar
    33    18    19   ar
    34    19    20    1
    35    20    21    1
    36    21    22    1
    37    22    23    1
    38    23    24    1
    39    24    25    1
    40    19    14   ar
    41    25    20    1
    42     9     1   ar
    43    38    33   ar
    44     8     4    1
    45    11    12    1
    46    31    32    1
    47     9    10    1
    48    23    26    1
@<TRIPOS>MOLECULE
*****
 44 48 0 0 0
SMALL
GASTEIGER

@<TRIPOS>ATOM
      1 C          64.2657   88.2944   14.1817 C.ar    1  UNL1        0.2006
      2 N          63.2987   88.1089   13.0502 N.ar    1  UNL1       -0.2000
      3 C          62.8882   86.7277   12.6331 C.ar    1  UNL1        0.1379
      4 C          63.4450   85.5321   13.3475 C.ar    1  UNL1        0.0673
      5 C          63.2265   84.0598   13.1611 C.ar    1  UNL1        0.0265
      6 C          64.0585   83.3354   14.1775 C.ar    1  UNL1        0.1007
      7 N          64.7913   84.3600   14.9920 N.ar    1  UNL1       -0.2268
      8 C          64.4121   85.7176   14.4791 C.ar    1  UNL1        0.1452
      9 N          64.8224   87.0988   14.8961 N.ar    1  UNL1       -0.3118
     10 H          65.4571   87.2205   15.6388 H       1  UNL1        0.1700
     11 N          64.6761   89.6756   14.5988 N.pl3   1  UNL1       -0.2816
     12 H          64.6879   89.9187   15.5528 H       1  UNL1        0.1551
     13 C          63.7289   92.1224   10.1137 C.3     1  UNL1        0.0307
     14 C          64.5950   91.9099   11.3198 C.ar    1  UNL1       -0.0244
     15 C          64.2025   90.8991   12.3562 C.ar    1  UNL1        0.0132
     16 C          65.0686   90.6864   13.5624 C.ar    1  UNL1        0.0845
     17 C          66.3271   91.4847   13.7321 C.ar    1  UNL1        0.1513
     18 C          66.7196   92.4956   12.6956 C.ar    1  UNL1        0.0336
     19 C          65.8536   92.7082   11.4896 C.ar    1  UNL1       -0.0233
     20 C          66.2461   93.7190   10.4532 C.3     1  UNL1        0.0249
     21 C          67.2736   93.3709    9.4173 C.3     1  UNL1        0.0215
     22 C          67.6661   94.3817    8.3809 C.3     1  UNL1        0.0689
     23 N          67.0310   95.7407    8.3803 N.3     1  UNL1       -0.2974
     24 C          66.0035   96.0888    9.4162 C.3     1  UNL1        0.0689
     25 C          65.6110   95.0779   10.4526 C.3     1  UNL1        0.0215
     26 H          66.5834   95.8561    7.4711 H       1  UNL1        0.1232
     27 O          67.1932   91.2722   14.9383 O.3     1  UNL1       -0.4779
     28 C          67.3003   92.3433   15.9829 C.3     1  UNL1        0.1662
     29 C          68.6153   93.0214   16.2297 C.3     1  UNL1        0.0472
     30 C          66.0923   92.7363   16.7806 C.3     1  UNL1        0.0472
     31 N          61.9211   86.5423   11.5015 N.pl3   1  UNL1       -0.2968
     32 H          61.7189   85.6376   11.1701 H       1  UNL1        0.1536
     33 C          61.2622   87.7352   10.8750 C.ar    1  UNL1        0.0667
     34 C          60.8735   88.9093   11.7237 C.ar    1  UNL1        0.0159
     35 C          60.2145   90.1023   11.0970 C.ar    1  UNL1        0.0014
     36 C          59.9443   90.1211    9.6217 C.ar    1  UNL1        0.0014
     37 C          60.3331   88.9470    8.7730 C.ar    1  UNL1        0.0196
     38 C          60.9920   87.7540    9.3996 C.ar    1  UNL1        0.1189
     39 S          61.3808   86.5799    8.5509 S.O2    1  UNL1        0.0082
     40 O          62.8258   86.8311    8.8653 O.2     1  UNL1       -0.1686
     41 O          59.9358   86.3287    8.2365 O.2     1  UNL1       -0.1686
     42 C          61.7695   85.4058    7.7022 C.3     1  UNL1        0.1340
     43 C          63.0919   84.7310    7.9159 C.3     1  UNL1        0.0257
     44 C          60.8357   84.9065    6.6397 C.3     1  UNL1        0.0257
@<TRIPOS>BOND
     1    13    14    1
     2    14    15   ar
     3    15    16   ar
     4    16    11    1
     5    11     1    1
     6     1     2   ar
     7     2     3   ar
     8     3    31    1
     9    31    33    1
    10    33    34   ar
    11    34    35   ar
    12    35    36   ar
    13    36    37   ar
    14    37    38   ar
    15    38    39    1
    16    39    40    2
    17    39    41    2
    18    39    42    1
    19    42    43    1
    20    42    44    1
    21     3     4   ar
    22     4     5   ar
    23     5     6   ar
    24     6     7   ar
    25     7     8   ar
    26     8     9   ar
    27    16    17   ar
    28    17    27    1
    29    27    28    1
    30    28    29    1
    31    28    30    1
    32    17    18   ar
    33    18    19   ar
    34    19    20    1
    35    20    21    1
    36    21    22    1
    37    22    23    1
    38    23    24    1
    39    24    25    1
    40    19    14   ar
    41    25    20    1
    42     9     1   ar
    43    38    33   ar
    44     8     4    1
    45    11    12    1
    46    31    32    1
    47     9    10    1
    48    23    26    1
@<TRIPOS>MOLECULE
*****
 44 48 0 0 0
SMALL
GASTEIGER

@<TRIPOS>ATOM
      1 C          64.2150   88.3777   14.2796 C.ar    1  UNL1        0.2006
      2 N          63.2250   88.1341   13.1795 N.ar    1  UNL1       -0.2000
      3 C          62.8417   86.7311   12.8124 C.ar    1  UNL1        0.1379
      4 C          63.4487   85.5717   13.5454 C.ar    1  UNL1        0.0673
      5 C          63.2656   84.0894   13.4063 C.ar    1  UNL1        0.0265
      6 C          64.1426   83.4169   14.4205 C.ar    1  UNL1        0.1007
      7 N          64.8677   84.4836   15.1864 N.ar    1  UNL1       -0.2268
      8 C          64.4389   85.8153   14.6455 C.ar    1  UNL1        0.1452
      9 N          64.8220   87.2183   15.0126 N.ar    1  UNL1       -0.3118
     10 H          65.4719   87.3782   15.7347 H       1  UNL1        0.1700
     11 N          64.5983   89.7807   14.6468 N.pl3   1  UNL1       -0.2816
     12 H          64.5573   90.0724   15.5862 H       1  UNL1        0.1551
     13 C          63.7805   92.1486   10.0943 C.3     1  UNL1        0.0307
     14 C          64.6350   91.9233   11.3063 C.ar    1  UNL1       -0.0244
     15 C          64.1894   90.9647   12.3705 C.ar    1  UNL1        0.0132
     16 C          65.0439   90.7393   13.5826 C.ar    1  UNL1        0.0845
     17 C          66.3441   91.4725   13.7304 C.ar    1  UNL1        0.1513
     18 C          66.7898   92.4311   12.6661 C.ar    1  UNL1        0.0336
     19 C          65.9353   92.6565   11.4542 C.ar    1  UNL1       -0.0233
     20 C          66.3810   93.6150   10.3900 C.3     1  UNL1        0.0249
     21 C          65.7997   94.9967   10.3339 C.3     1  UNL1        0.0215
     22 C          66.2453   95.9552    9.2697 C.3     1  UNL1        0.0689
     23 N          67.2722   95.5321    8.2616 N.3     1  UNL1       -0.2974
     24 C          67.8535   94.1505    8.3176 C.3     1  UNL1        0.0689
     25 C          67.4079   93.1919    9.3818 C.3     1  UNL1        0.0215
     26 H          68.0527   96.1835    8.3451 H       1  UNL1        0.1232
     27 O          67.1987   91.2472   14.9424 O.3     1  UNL1       -0.4779
     28 C          67.3532   92.3347   15.9639 C.3     1  UNL1        0.1662
     29 C          66.1786   92.7524   16.7981 C.3     1  UNL1        0.0472
     30 C          68.6822   93.0044   16.1511 C.3     1  UNL1        0.0472
     31 N          61.8516   86.4876   11.7122 N.pl3   1  UNL1       -0.2968
     32 H          60.9148   86.7700   11.8216 H       1  UNL1        0.1536
     33 C          62.2886   85.8138   10.4454 C.ar    1  UNL1        0.0667
     34 C          63.1166   84.5646   10.5074 C.ar    1  UNL1        0.0159
     35 C          63.5537   83.8908    9.2405 C.ar    1  UNL1        0.0014
     36 C          63.1627   84.4663    7.9116 C.ar    1  UNL1        0.0014
     37 C          62.3347   85.7156    7.8496 C.ar    1  UNL1        0.0196
     38 C          61.8977   86.3893    9.1165 C.ar    1  UNL1        0.1189
     39 S          61.0697   87.6385    9.0544 S.O2    1  UNL1        0.0082
     40 O          59.9543   86.8674    8.4132 O.2     1  UNL1       -0.1686
     41 O          62.1851   88.4097    9.6956 O.2     1  UNL1       -0.1686
     42 C          60.2417   88.8877    8.9924 C.3     1  UNL1        0.1340
     43 C          60.1721   89.8012   10.1802 C.3     1  UNL1        0.0257
     44 C          59.4833   89.2235    7.7426 C.3     1  UNL1        0.0257
@<TRIPOS>BOND
     1    13    14    1
     2    14    15   ar
     3    15    16   ar
     4    16    11    1
     5    11     1    1
     6     1     2   ar
     7     2     3   ar
     8     3    31    1
     9    31    33    1
    10    33    34   ar
    11    34    35   ar
    12    35    36   ar
    13    36    37   ar
    14    37    38   ar
    15    38    39    1
    16    39    40    2
    17    39    41    2
    18    39    42    1
    19    42    43    1
    20    42    44    1
    21     3     4   ar
    22     4     5   ar
    23     5     6   ar
    24     6     7   ar
    25     7     8   ar
    26     8     9   ar
    27    16    17   ar
    28    17    27    1
    29    27    28    1
    30    28    29    1
    31    28    30    1
    32    17    18   ar
    33    18    19   ar
    34    19    20    1
    35    20    21    1
    36    21    22    1
    37    22    23    1
    38    23    24    1
    39    24    25    1
    40    19    14   ar
    41    25    20    1
    42     9     1   ar
    43    38    33   ar
    44     8     4    1
    45    11    12    1
    46    31    32    1
    47     9    10    1
    48    23    26    1
@<TRIPOS>MOLECULE
*****
 44 48 0 0 0
SMALL
GASTEIGER

@<TRIPOS>ATOM
      1 C          62.6430   87.5486   11.5819 C.ar    1  UNL1        0.2006
      2 N          63.2650   86.4036   12.3247 N.ar    1  UNL1       -0.2000
      3 C          63.4876   85.0922   11.6314 C.ar    1  UNL1        0.1379
      4 C          63.0881   84.9259   10.1952 C.ar    1  UNL1        0.0673
      5 C          63.1832   83.7607    9.2554 C.ar    1  UNL1        0.0265
      6 C          62.6199   84.1856    7.9317 C.ar    1  UNL1        0.1007
      7 N          62.1766   85.6134    8.0534 N.ar    1  UNL1       -0.2268
      8 C          62.4660   86.0710    9.4523 C.ar    1  UNL1        0.1452
      9 N          62.2434   87.3823   10.1457 N.ar    1  UNL1       -0.3118
     10 H          61.8351   88.1339    9.6581 H       1  UNL1        0.1700
     11 N          62.4204   88.8601   12.2752 N.pl3   1  UNL1       -0.2816
     12 H          61.7311   88.9367   12.9740 H       1  UNL1        0.1551
     13 C          66.0265   92.3938   13.5036 C.3     1  UNL1        0.0307
     14 C          65.0512   91.8216   12.5181 C.ar    1  UNL1       -0.0244
     15 C          64.2235   90.6270   12.8894 C.ar    1  UNL1        0.0132
     16 C          63.2481   90.0546   11.9039 C.ar    1  UNL1        0.0845
     17 C          63.1004   90.6769   10.5471 C.ar    1  UNL1        0.1513
     18 C          63.9282   91.8716   10.1758 C.ar    1  UNL1        0.0336
     19 C          64.9035   92.4438   11.1612 C.ar    1  UNL1       -0.0233
     20 C          65.7312   93.6384   10.7899 C.3     1  UNL1        0.0249
     21 C          66.8494   93.4977    9.8000 C.3     1  UNL1        0.0215
     22 C          67.6771   94.6923    9.4287 C.3     1  UNL1        0.0689
     23 N          67.3866   96.0275   10.0473 N.3     1  UNL1       -0.2974
     24 C          66.2684   96.1683   11.0371 C.3     1  UNL1        0.0689
     25 C          65.4407   94.9737   11.4084 C.3     1  UNL1        0.0215
     26 H          67.1838   96.6692    9.2808 H       1  UNL1        0.1232
     27 O          62.1251   90.1046    9.5616 O.3     1  UNL1       -0.4779
     28 C          60.6573   90.1084    9.8706 C.3     1  UNL1        0.1662
     29 C          59.7033   89.3581    8.9891 C.3     1  UNL1        0.0472
     30 C          60.1434   90.8626   11.0610 C.3     1  UNL1        0.0472
     31 N          64.1098   83.9471   12.3743 N.pl3   1  UNL1       -0.2968
     32 H          65.0859   83.9128   12.4979 H       1  UNL1        0.1536
     33 C          63.2447   82.8545   12.9289 C.ar    1  UNL1        0.0667
     34 C          62.9536   81.6363   12.1035 C.ar    1  UNL1        0.0159
     35 C          62.0885   80.5436   12.6582 C.ar    1  UNL1        0.0014
     36 C          61.5144   80.6692   14.0383 C.ar    1  UNL1        0.0014
     37 C          61.8055   81.8874   14.8637 C.ar    1  UNL1        0.0196
     38 C          62.6706   82.9800   14.3090 C.ar    1  UNL1        0.1189
     39 S          62.9616   84.1982   15.1344 S.O2    1  UNL1        0.0082
     40 O          64.3802   83.7424   15.3069 O.2     1  UNL1       -0.1686
     41 O          61.5430   84.6540   14.9619 O.2     1  UNL1       -0.1686
     42 C          63.2527   85.4164   15.9598 C.3     1  UNL1        0.1340
     43 C          62.3804   85.7537   17.1325 C.3     1  UNL1        0.0257
     44 C          64.4161   86.2972   15.6125 C.3     1  UNL1        0.0257
@<TRIPOS>BOND
     1    13    14    1
     2    14    15   ar
     3    15    16   ar
     4    16    11    1
     5    11     1    1
     6     1     2   ar
     7     2     3   ar
     8     3    31    1
     9    31    33    1
    10    33    34   ar
    11    34    35   ar
    12    35    36   ar
    13    36    37   ar
    14    37    38   ar
    15    38    39    1
    16    39    40    2
    17    39    41    2
    18    39    42    1
    19    42    43    1
    20    42    44    1
    21     3     4   ar
    22     4     5   ar
    23     5     6   ar
    24     6     7   ar
    25     7     8   ar
    26     8     9   ar
    27    16    17   ar
    28    17    27    1
    29    27    28    1
    30    28    29    1
    31    28    30    1
    32    17    18   ar
    33    18    19   ar
    34    19    20    1
    35    20    21    1
    36    21    22    1
    37    22    23    1
    38    23    24    1
    39    24    25    1
    40    19    14   ar
    41    25    20    1
    42     9     1   ar
    43    38    33   ar
    44     8     4    1
    45    11    12    1
    46    31    32    1
    47     9    10    1
    48    23    26    1
@<TRIPOS>MOLECULE
*****
 44 48 0 0 0
SMALL
GASTEIGER

@<TRIPOS>ATOM
      1 C          62.1175   90.1864    9.9094 C.ar    1  UNL1        0.2006
      2 N          62.3825   89.0624   10.8665 N.ar    1  UNL1       -0.2000
      3 C          61.6567   87.7588   10.7120 C.ar    1  UNL1        0.1379
      4 C          60.6658   87.5793    9.6002 C.ar    1  UNL1        0.0673
      5 C          59.8051   86.4177    9.2007 C.ar    1  UNL1        0.0265
      6 C          59.0080   86.8238    7.9967 C.ar    1  UNL1        0.1007
      7 N          59.3762   88.2365    7.6520 N.ar    1  UNL1       -0.2268
      8 C          60.4008   88.7035    8.6431 C.ar    1  UNL1        0.1452
      9 N          61.1266   90.0070    8.7977 N.ar    1  UNL1       -0.3118
     10 H          60.9526   90.7448    8.1695 H       1  UNL1        0.1700
     11 N          62.8433   91.4901   10.0639 N.pl3   1  UNL1       -0.2816
     12 H          62.6356   92.2432    9.4648 H       1  UNL1        0.1551
     13 C          64.7778   90.1459   14.6955 C.3     1  UNL1        0.0307
     14 C          64.8529   90.9741   13.4471 C.ar    1  UNL1       -0.0244
     15 C          63.8106   90.8180   12.3797 C.ar    1  UNL1        0.0132
     16 C          63.8856   91.6461   11.1312 C.ar    1  UNL1        0.0845
     17 C          65.0030   92.6303   10.9501 C.ar    1  UNL1        0.1513
     18 C          66.0454   92.7864   12.0175 C.ar    1  UNL1        0.0336
     19 C          65.9704   91.9583   13.2659 C.ar    1  UNL1       -0.0233
     20 C          67.0127   92.1143   14.3332 C.3     1  UNL1        0.0249
     21 C          66.6015   92.4038   15.7465 C.3     1  UNL1        0.0215
     22 C          67.6438   92.5598   16.8138 C.3     1  UNL1        0.0689
     23 N          69.0973   92.4264   16.4679 N.3     1  UNL1       -0.2974
     24 C          69.5084   92.1370   15.0547 C.3     1  UNL1        0.0689
     25 C          68.4661   91.9809   13.9874 C.3     1  UNL1        0.0215
     26 H          69.4687   91.6706   17.0433 H       1  UNL1        0.1232
     27 O          65.0781   93.4584    9.7017 O.3     1  UNL1       -0.4779
     28 C          66.1141   94.5361    9.5777 C.3     1  UNL1        0.1662
     29 C          67.4437   94.2302    8.9544 C.3     1  UNL1        0.0472
     30 C          65.8204   95.9197   10.0771 C.3     1  UNL1        0.0472
     31 N          61.9218   86.6347   11.6692 N.pl3   1  UNL1       -0.2968
     32 H          61.5847   86.6848   12.5928 H       1  UNL1        0.1536
     33 C          62.7005   85.4343   11.2191 C.ar    1  UNL1        0.0667
     34 C          62.7965   85.1069    9.7584 C.ar    1  UNL1        0.0159
     35 C          63.5752   83.9065    9.3084 C.ar    1  UNL1        0.0014
     36 C          64.2579   83.0333   10.3192 C.ar    1  UNL1        0.0014
     37 C          64.1619   83.3607   11.7798 C.ar    1  UNL1        0.0196
     38 C          63.3832   84.5611   12.2298 C.ar    1  UNL1        0.1189
     39 S          63.2872   84.8884   13.6905 S.O2    1  UNL1        0.0082
     40 O          62.6914   83.5373   13.9541 O.2     1  UNL1       -0.1686
     41 O          63.8830   86.2395   13.4269 O.2     1  UNL1       -0.1686
     42 C          63.1912   85.2158   15.1512 C.3     1  UNL1        0.1340
     43 C          63.9033   86.4169   15.6991 C.3     1  UNL1        0.0257
     44 C          62.3831   84.3418   16.0641 C.3     1  UNL1        0.0257
@<TRIPOS>BOND
     1    13    14    1
     2    14    15   ar
     3    15    16   ar
     4    16    11    1
     5    11     1    1
     6     1     2   ar
     7     2     3   ar
     8     3    31    1
     9    31    33    1
    10    33    34   ar
    11    34    35   ar
    12    35    36   ar
    13    36    37   ar
    14    37    38   ar
    15    38    39    1
    16    39    40    2
    17    39    41    2
    18    39    42    1
    19    42    43    1
    20    42    44    1
    21     3     4   ar
    22     4     5   ar
    23     5     6   ar
    24     6     7   ar
    25     7     8   ar
    26     8     9   ar
    27    16    17   ar
    28    17    27    1
    29    27    28    1
    30    28    29    1
    31    28    30    1
    32    17    18   ar
    33    18    19   ar
    34    19    20    1
    35    20    21    1
    36    21    22    1
    37    22    23    1
    38    23    24    1
    39    24    25    1
    40    19    14   ar
    41    25    20    1
    42     9     1   ar
    43    38    33   ar
    44     8     4    1
    45    11    12    1
    46    31    32    1
    47     9    10    1
    48    23    26    1
@<TRIPOS>MOLECULE
*****
 44 48 0 0 0
SMALL
GASTEIGER

@<TRIPOS>ATOM
      1 C          63.7100   89.1650   15.5001 C.ar    1  UNL1        0.2006
      2 N          64.1942   88.3015   14.3734 N.ar    1  UNL1       -0.2000
      3 C          64.0064   86.8144   14.4338 C.ar    1  UNL1        0.1379
      4 C          63.3342   86.1911   15.6211 C.ar    1  UNL1        0.0673
      5 C          63.0116   84.7655   15.9580 C.ar    1  UNL1        0.0265
      6 C          62.3279   84.7481   17.2930 C.ar    1  UNL1        0.1007
      7 N          62.2280   86.1629   17.7812 N.ar    1  UNL1       -0.2268
      8 C          62.8499   87.0548   16.7479 C.ar    1  UNL1        0.1452
      9 N          63.0378   88.5417   16.6874 N.ar    1  UNL1       -0.3118
     10 H          62.7199   89.1086   17.4269 H       1  UNL1        0.1700
     11 N          63.8978   90.6521   15.4396 N.pl3   1  UNL1       -0.2816
     12 H          63.5781   91.2191   16.1782 H       1  UNL1        0.1551
     13 C          63.9743   91.7298   10.3570 C.3     1  UNL1        0.0307
     14 C          64.6112   91.8140   11.7125 C.ar    1  UNL1       -0.0244
     15 C          63.9361   91.1910   12.8983 C.ar    1  UNL1        0.0132
     16 C          64.5729   91.2751   14.2538 C.ar    1  UNL1        0.0845
     17 C          65.8848   91.9822   14.4235 C.ar    1  UNL1        0.1513
     18 C          66.5599   92.6052   13.2377 C.ar    1  UNL1        0.0336
     19 C          65.9232   92.5211   11.8823 C.ar    1  UNL1       -0.0233
     20 C          66.5982   93.1441   10.6965 C.3     1  UNL1        0.0249
     21 C          66.2037   94.5193   10.2457 C.3     1  UNL1        0.0215
     22 C          66.8788   95.1423    9.0599 C.3     1  UNL1        0.0689
     23 N          67.9484   94.3901    8.3249 N.3     1  UNL1       -0.2974
     24 C          68.3429   93.0149    8.7757 C.3     1  UNL1        0.0689
     25 C          67.6678   92.3919    9.9615 C.3     1  UNL1        0.0215
     26 H          68.7903   94.9647    8.3612 H       1  UNL1        0.1232
     27 O          66.5217   92.0663   15.7790 O.3     1  UNL1       -0.4779
     28 C          67.8726   92.6993   15.9350 C.3     1  UNL1        0.1662
     29 C          68.0743   94.1380   15.5617 C.3     1  UNL1        0.0472
     30 C          69.0217   91.8935   16.4643 C.3     1  UNL1        0.0472
     31 N          64.4907   85.9509   13.3070 N.pl3   1  UNL1       -0.2968
     32 H          65.1630   86.2962   12.6760 H       1  UNL1        0.1536
     33 C          63.9509   84.5612   13.1416 C.ar    1  UNL1        0.0667
     34 C          64.4501   83.4530   14.0206 C.ar    1  UNL1        0.0159
     35 C          63.9102   82.0634   13.8551 C.ar    1  UNL1        0.0014
     36 C          62.8711   81.7820   12.8106 C.ar    1  UNL1        0.0014
     37 C          62.3718   82.8902   11.9316 C.ar    1  UNL1        0.0196
     38 C          62.9117   84.2798   12.0971 C.ar    1  UNL1        0.1189
     39 S          62.4125   85.3880   11.2181 S.O2    1  UNL1        0.0082
     40 O          61.6438   85.9579   12.3732 O.2     1  UNL1       -0.1686
     41 O          63.1811   84.8181   10.0630 O.2     1  UNL1       -0.1686
     42 C          61.9132   86.4962   10.3391 C.3     1  UNL1        0.1340
     43 C          62.1817   87.9250   10.7081 C.3     1  UNL1        0.0257
     44 C          61.1455   86.1754    9.0910 C.3     1  UNL1        0.0257
@<TRIPOS>BOND
     1    13    14    1
     2    14    15   ar
     3    15    16   ar
     4    16    11    1
     5    11     1    1
     6     1     2   ar
     7     2     3   ar
     8     3    31    1
     9    31    33    1
    10    33    34   ar
    11    34    35   ar
    12    35    36   ar
    13    36    37   ar
    14    37    38   ar
    15    38    39    1
    16    39    40    2
    17    39    41    2
    18    39    42    1
    19    42    43    1
    20    42    44    1
    21     3     4   ar
    22     4     5   ar
    23     5     6   ar
    24     6     7   ar
    25     7     8   ar
    26     8     9   ar
    27    16    17   ar
    28    17    27    1
    29    27    28    1
    30    28    29    1
    31    28    30    1
    32    17    18   ar
    33    18    19   ar
    34    19    20    1
    35    20    21    1
    36    21    22    1
    37    22    23    1
    38    23    24    1
    39    24    25    1
    40    19    14   ar
    41    25    20    1
    42     9     1   ar
    43    38    33   ar
    44     8     4    1
    45    11    12    1
    46    31    32    1
    47     9    10    1
    48    23    26    1
@<TRIPOS>MOLECULE
*****
 44 48 0 0 0
SMALL
GASTEIGER

@<TRIPOS>ATOM
      1 C          63.5360   88.8934   15.4960 C.ar    1  UNL1        0.2006
      2 N          64.0558   88.0632   14.3601 N.ar    1  UNL1       -0.2000
      3 C          63.9551   86.5676   14.4166 C.ar    1  UNL1        0.1379
      4 C          63.3344   85.9023   15.6091 C.ar    1  UNL1        0.0673
      5 C          63.0990   84.4592   15.9439 C.ar    1  UNL1        0.0265
      6 C          62.4335   84.3976   17.2868 C.ar    1  UNL1        0.1007
      7 N          62.2577   85.8026   17.7820 N.ar    1  UNL1       -0.2268
      8 C          62.8145   86.7326   16.7451 C.ar    1  UNL1        0.1452
      9 N          62.9153   88.2281   16.6885 N.ar    1  UNL1       -0.3118
     10 H          62.5741   88.7730   17.4341 H       1  UNL1        0.1700
     11 N          63.6367   90.3890   15.4395 N.pl3   1  UNL1       -0.2816
     12 H          63.2019   90.9382   16.1313 H       1  UNL1        0.1551
     13 C          67.8843   92.8551   13.7435 C.3     1  UNL1        0.0307
     14 C          66.5237   92.2809   13.4808 C.ar    1  UNL1       -0.0244
     15 C          65.7605   91.6221   14.5914 C.ar    1  UNL1        0.0132
     16 C          64.3999   91.0478   14.3289 C.ar    1  UNL1        0.0845
     17 C          63.8025   91.1323   12.9556 C.ar    1  UNL1        0.1513
     18 C          64.5657   91.7911   11.8449 C.ar    1  UNL1        0.0336
     19 C          65.9262   92.3654   12.1075 C.ar    1  UNL1       -0.0233
     20 C          66.6894   93.0241   10.9968 C.3     1  UNL1        0.0249
     21 C          67.6604   92.2263   10.1779 C.3     1  UNL1        0.0215
     22 C          68.4236   92.8851    9.0673 C.3     1  UNL1        0.0689
     23 N          68.2158   94.3417    8.7756 N.3     1  UNL1       -0.2974
     24 C          67.2448   95.1395    9.5945 C.3     1  UNL1        0.0689
     25 C          66.4816   94.4807   10.7051 C.3     1  UNL1        0.0215
     26 H          67.9061   94.4065    7.8059 H       1  UNL1        0.1232
     27 O          62.4419   90.5580   12.6929 O.3     1  UNL1       -0.4779
     28 C          61.9346   90.4445   11.2859 C.3     1  UNL1        0.1662
     29 C          62.8745   90.0734   10.1774 C.3     1  UNL1        0.0472
     30 C          60.4873   90.7021   10.9874 C.3     1  UNL1        0.0472
     31 N          64.4750   85.7374   13.2805 N.pl3   1  UNL1       -0.2968
     32 H          65.1303   86.1183   12.6522 H       1  UNL1        0.1536
     33 C          63.9966   84.3271   13.1019 C.ar    1  UNL1        0.0667
     34 C          64.5536   83.2315   13.9619 C.ar    1  UNL1        0.0159
     35 C          64.0752   81.8212   13.7832 C.ar    1  UNL1        0.0014
     36 C          63.0397   81.5064   12.7446 C.ar    1  UNL1        0.0014
     37 C          62.4827   82.6019   11.8847 C.ar    1  UNL1        0.0196
     38 C          62.9611   84.0123   12.0633 C.ar    1  UNL1        0.1189
     39 S          62.4041   85.1078   11.2034 S.O2    1  UNL1        0.0082
     40 O          63.1573   84.5657   10.0249 O.2     1  UNL1       -0.1686
     41 O          61.6509   85.6499   12.3819 O.2     1  UNL1       -0.1686
     42 C          61.8471   86.2034   10.3435 C.3     1  UNL1        0.1340
     43 C          60.7479   87.0807   10.8649 C.3     1  UNL1        0.0257
     44 C          62.3894   86.4216    8.9620 C.3     1  UNL1        0.0257
@<TRIPOS>BOND
     1    13    14    1
     2    14    15   ar
     3    15    16   ar
     4    16    11    1
     5    11     1    1
     6     1     2   ar
     7     2     3   ar
     8     3    31    1
     9    31    33    1
    10    33    34   ar
    11    34    35   ar
    12    35    36   ar
    13    36    37   ar
    14    37    38   ar
    15    38    39    1
    16    39    40    2
    17    39    41    2
    18    39    42    1
    19    42    43    1
    20    42    44    1
    21     3     4   ar
    22     4     5   ar
    23     5     6   ar
    24     6     7   ar
    25     7     8   ar
    26     8     9   ar
    27    16    17   ar
    28    17    27    1
    29    27    28    1
    30    28    29    1
    31    28    30    1
    32    17    18   ar
    33    18    19   ar
    34    19    20    1
    35    20    21    1
    36    21    22    1
    37    22    23    1
    38    23    24    1
    39    24    25    1
    40    19    14   ar
    41    25    20    1
    42     9     1   ar
    43    38    33   ar
    44     8     4    1
    45    11    12    1
    46    31    32    1
    47     9    10    1
    48    23    26    1
