@<TRIPOS>MOLECULE
*****
 43 47 0 0 0
SMALL
GASTEIGER

@<TRIPOS>ATOM
      1 O          59.3383   86.9924    6.4557 O.2     1  UNL1       -0.2749
      2 C          59.6605   88.3644    6.9694 C.2     1  UNL1        0.2253
      3 N          60.4330   88.5253    8.2452 N.am    1  UNL1       -0.2791
      4 C          60.8272   89.8263    8.8791 C.3     1  UNL1        0.0955
      5 C          61.5846   89.5185   10.1367 C.3     1  UNL1        0.0497
      6 C          61.6584   88.0272   10.2800 C.3     1  UNL1        0.1527
      7 C          62.2818   87.1489   11.3241 C.ar    1  UNL1        0.0130
      8 C          62.9935   87.7627   12.4931 C.ar    1  UNL1       -0.0002
      9 C          63.6169   86.8844   13.5370 C.ar    1  UNL1        0.0177
     10 C          63.5285   85.3922   13.4120 C.ar    1  UNL1        0.1045
     11 N          62.8168   84.7784   12.2430 N.ar    1  UNL1       -0.2511
     12 C          62.1934   85.6567   11.1991 C.ar    1  UNL1        0.0563
     13 C          61.4817   85.0429   10.0300 C.3     1  UNL1        0.0473
     14 C          60.8583   85.9212    8.9860 C.3     1  UNL1        0.0281
     15 C          60.9467   87.4134    9.1110 C.3     1  UNL1        0.1002
     16 C          59.2105   89.5754    6.2074 C.3     1  UNL1        0.0802
     17 C          57.7509   89.9124    6.1286 C.3     1  UNL1        0.0344
     18 C          57.3007   91.1235    5.3666 C.3     1  UNL1        0.1513
     19 S          58.3102   91.9977    4.6834 S.O2    1  UNL1       -0.0100
     20 O          58.8816   93.1249    3.8754 O.2     1  UNL1       -0.1730
     21 O          57.0490   92.7260    4.3241 O.2     1  UNL1       -0.1730
     22 C          59.7697   91.6608    4.7622 C.3     1  UNL1        0.1513
     23 C          60.2199   90.4497    5.5242 C.3     1  UNL1        0.0344
     24 S          62.3339   88.7808   11.3872 S.O2    1  UNL1        0.0106
     25 O          63.0943   88.8278   11.1525 O.2     1  UNL1       -0.1684
     26 O          61.0279   88.8775   12.1184 O.2     1  UNL1       -0.1684
     27 C          63.0096   89.5344   12.4943 C.ar    1  UNL1        0.1061
     28 C          64.2607   90.3136   12.2165 C.ar    1  UNL1        0.0207
     29 C          64.9364   91.0672   13.3236 C.ar    1  UNL1        0.0310
     30 C          64.3608   91.0415   14.7085 C.ar    1  UNL1        0.1402
     31 F          65.0364   91.7951   15.8156 F       1  UNL1       -0.2042
     32 C          63.1096   90.2622   14.9863 C.ar    1  UNL1        0.0310
     33 C          62.4340   89.5087   13.8792 C.ar    1  UNL1        0.0207
     34 C          64.1520   84.5139   14.4561 C.3     1  UNL1        0.3398
     35 F          65.1782   84.0596   13.4610 F       1  UNL1       -0.2160
     36 C          64.7754   83.6356   15.5000 C.3     1  UNL1        0.4378
     37 F          65.3988   82.7573   16.5441 F       1  UNL1       -0.1666
     38 F          66.1201   84.2246   15.1925 F       1  UNL1       -0.1666
     39 F          63.5166   82.9439   15.9326 F       1  UNL1       -0.1666
     40 C          63.1257   84.9682   15.4512 C.3     1  UNL1        0.4378
     41 F          62.0993   85.4226   16.4463 F       1  UNL1       -0.1666
     42 F          64.0711   85.6664   16.3831 F       1  UNL1       -0.1666
     43 F          61.8307   84.4497   14.8994 F       1  UNL1       -0.1666
@<TRIPOS>BOND
     1     1     2    2
     2     2    16    1
     3    16    17    1
     4    17    18    1
     5    18    19    1
     6    19    20    2
     7    19    21    2
     8    19    22    1
     9    22    23    1
    10     2     3   am
    11     3     4    1
    12     4     5    1
    13     5     6    1
    14     6    24    1
    15    24    25    2
    16    24    26    2
    17    24    27    1
    18    27    28   ar
    19    28    29   ar
    20    29    30   ar
    21    30    31    1
    22    30    32   ar
    23    32    33   ar
    24     6     7    1
    25     7     8   ar
    26     8     9   ar
    27     9    10   ar
    28    10    34    1
    29    34    35    1
    30    34    36    1
    31    36    37    1
    32    36    38    1
    33    36    39    1
    34    34    40    1
    35    40    41    1
    36    40    42    1
    37    40    43    1
    38    10    11   ar
    39    11    12   ar
    40    12    13    1
    41    13    14    1
    42    15    14    1
    43    23    16    1
    44    15     3    1
    45    15     6    1
    46    33    27   ar
    47    12     7   ar
