@<TRIPOS>MOLECULE
*****
 24 26 0 0 0
SMALL
GASTEIGER

@<TRIPOS>ATOM
      1 C          63.8015   89.4884   15.0936 C.2     1  UNL1        0.2320
      2 O          62.4469   89.3084   15.7121 O.2     1  UNL1       -0.2744
      3 N          64.6115   88.2889   14.6997 N.am    1  UNL1       -0.2639
      4 H          65.5006   88.4070   14.2938 H       1  UNL1        0.1567
      5 C          64.0669   86.9094   14.9243 C.ar    1  UNL1        0.1655
      6 N          63.8964   85.8478   13.8785 N.ar    1  UNL1       -0.2239
      7 C          63.3213   84.6316   14.5420 C.ar    1  UNL1        0.0898
      8 C          63.1364   84.9417   15.9980 C.ar    1  UNL1        0.0572
      9 S          63.5972   86.3494   16.2342 S.2     1  UNL1       -0.0508
     10 C          62.9894   83.3333   13.8680 C.ar    1  UNL1        0.0213
     11 C          63.5343   83.0365   12.5024 C.ar    1  UNL1        0.0222
     12 C          63.2025   81.7383   11.8283 C.ar    1  UNL1        0.0989
     13 N          62.3255   80.7368   12.5199 N.ar    1  UNL1       -0.2423
     14 C          61.7806   81.0336   13.8855 C.ar    1  UNL1        0.0989
     15 C          62.1125   82.3319   14.5596 C.ar    1  UNL1        0.0222
     16 C          64.3461   90.8678   14.8690 C.3     1  UNL1        0.1118
     17 C          65.8239   92.8937   11.7930 C.ar    1  UNL1        0.1384
     18 C          64.9536   92.3923   10.6789 C.ar    1  UNL1        0.0369
     19 C          63.8808   91.3828   10.9615 C.ar    1  UNL1        0.0028
     20 C          63.6783   90.8746   12.3582 C.ar    1  UNL1       -0.0036
     21 C          64.5486   91.3760   13.4722 C.ar    1  UNL1       -0.0101
     22 C          65.6214   92.3855   13.1896 C.ar    1  UNL1        0.0331
     23 C          66.5409   95.2227   10.8921 C.3     1  UNL1        0.2525
     24 O          66.8968   93.9032   11.5104 O.3     1  UNL1       -0.4714
@<TRIPOS>BOND
     1    23    24    1
     2    24    17    1
     3    17    18   ar
     4    18    19   ar
     5    19    20   ar
     6    20    21   ar
     7    21    16    1
     8    16     1    1
     9     1     2    2
    10     1     3   am
    11     3     5    1
    12     5     6   ar
    13     6     7   ar
    14     7    10    1
    15    10    11   ar
    16    11    12   ar
    17    12    13   ar
    18    13    14   ar
    19    14    15   ar
    20     7     8   ar
    21     8     9   ar
    22    21    22   ar
    23    22    17   ar
    24     9     5   ar
    25    15    10   ar
    26     3     4    1
@<TRIPOS>MOLECULE
*****
 24 26 0 0 0
SMALL
GASTEIGER

@<TRIPOS>ATOM
      1 C          63.5464   89.1861   15.5911 C.2     1  UNL1        0.2320
      2 O          62.4103   88.6730   16.4255 O.2     1  UNL1       -0.2744
      3 N          64.3725   88.2316   14.7808 N.am    1  UNL1       -0.2639
      4 H          65.1182   88.5683   14.2332 H       1  UNL1        0.1567
      5 C          64.0626   86.7642   14.8049 C.ar    1  UNL1        0.1655
      6 N          63.8853   85.8807   13.6057 N.ar    1  UNL1       -0.2239
      7 C          63.5887   84.4931   14.0920 C.ar    1  UNL1        0.0898
      8 C          63.5826   84.5190   15.5919 C.ar    1  UNL1        0.0572
      9 S          63.8755   85.9226   16.0324 S.2     1  UNL1       -0.0508
     10 C          63.3415   83.2907   13.2299 C.ar    1  UNL1        0.0213
     11 C          63.7949   83.2870   11.8001 C.ar    1  UNL1        0.0222
     12 C          63.5478   82.0847   10.9380 C.ar    1  UNL1        0.0989
     13 N          62.8471   80.8859   11.5058 N.ar    1  UNL1       -0.2423
     14 C          62.3936   80.8897   12.9356 C.ar    1  UNL1        0.0989
     15 C          62.6408   82.0921   13.7977 C.ar    1  UNL1        0.0222
     16 C          63.8563   90.6535   15.5671 C.3     1  UNL1        0.1118
     17 C          67.0397   92.1236   13.7084 C.ar    1  UNL1        0.1384
     18 C          66.4871   92.3447   12.3315 C.ar    1  UNL1        0.0369
     19 C          65.0576   92.0020   12.0332 C.ar    1  UNL1        0.0028
     20 C          64.1806   91.4383   13.1117 C.ar    1  UNL1       -0.0036
     21 C          64.7333   91.2172   14.4885 C.ar    1  UNL1       -0.0101
     22 C          66.1628   91.5599   14.7868 C.ar    1  UNL1        0.0331
     23 C          68.8471   92.9968   15.3579 C.3     1  UNL1        0.2525
     24 O          68.4692   92.4663   14.0067 O.3     1  UNL1       -0.4714
@<TRIPOS>BOND
     1    23    24    1
     2    24    17    1
     3    17    18   ar
     4    18    19   ar
     5    19    20   ar
     6    20    21   ar
     7    21    16    1
     8    16     1    1
     9     1     2    2
    10     1     3   am
    11     3     5    1
    12     5     6   ar
    13     6     7   ar
    14     7    10    1
    15    10    11   ar
    16    11    12   ar
    17    12    13   ar
    18    13    14   ar
    19    14    15   ar
    20     7     8   ar
    21     8     9   ar
    22    21    22   ar
    23    22    17   ar
    24     9     5   ar
    25    15    10   ar
    26     3     4    1
@<TRIPOS>MOLECULE
*****
 24 26 0 0 0
SMALL
GASTEIGER

@<TRIPOS>ATOM
      1 C          64.1911   85.5358   15.4986 C.2     1  UNL1        0.2320
      2 O          65.5158   85.9282   14.9145 O.2     1  UNL1       -0.2744
      3 N          63.2124   86.5934   15.9155 N.am    1  UNL1       -0.2639
      4 H          62.3429   86.3359   16.2988 H       1  UNL1        0.1567
      5 C          63.5584   88.0433   15.7483 C.ar    1  UNL1        0.1655
      6 N          64.4500   88.6205   14.6891 N.ar    1  UNL1       -0.2239
      7 C          64.5163   90.1045   14.8970 C.ar    1  UNL1        0.0898
      8 C          63.6656   90.4446   16.0848 C.ar    1  UNL1        0.0572
      9 S          63.0736   89.1707   16.6109 S.2     1  UNL1       -0.0508
     10 C          65.2963   91.0776   14.0636 C.ar    1  UNL1        0.0213
     11 C          64.6996   91.6338   12.8048 C.ar    1  UNL1        0.0222
     12 C          65.4795   92.6069   11.9713 C.ar    1  UNL1        0.0989
     13 N          66.8562   93.0240   12.3967 N.ar    1  UNL1       -0.2423
     14 C          67.4529   92.4678   13.6555 C.ar    1  UNL1        0.0989
     15 C          66.6729   91.4946   14.4889 C.ar    1  UNL1        0.0222
     16 C          63.8451   84.0859   15.6658 C.3     1  UNL1        0.1118
     17 C          63.8526   82.5878   11.9908 C.ar    1  UNL1        0.1384
     18 C          62.7148   81.6143   12.0793 C.ar    1  UNL1        0.0369
     19 C          61.9538   81.4647   13.3632 C.ar    1  UNL1        0.0028
     20 C          62.3305   82.2886   14.5587 C.ar    1  UNL1       -0.0036
     21 C          63.4683   83.2620   14.4703 C.ar    1  UNL1       -0.0101
     22 C          64.2293   83.4116   13.1864 C.ar    1  UNL1        0.0331
     23 C          64.0307   83.5349    9.5781 C.3     1  UNL1        0.2525
     24 O          64.6136   82.7374   10.7069 O.3     1  UNL1       -0.4714
@<TRIPOS>BOND
     1    23    24    1
     2    24    17    1
     3    17    18   ar
     4    18    19   ar
     5    19    20   ar
     6    20    21   ar
     7    21    16    1
     8    16     1    1
     9     1     2    2
    10     1     3   am
    11     3     5    1
    12     5     6   ar
    13     6     7   ar
    14     7    10    1
    15    10    11   ar
    16    11    12   ar
    17    12    13   ar
    18    13    14   ar
    19    14    15   ar
    20     7     8   ar
    21     8     9   ar
    22    21    22   ar
    23    22    17   ar
    24     9     5   ar
    25    15    10   ar
    26     3     4    1
@<TRIPOS>MOLECULE
*****
 24 26 0 0 0
SMALL
GASTEIGER

@<TRIPOS>ATOM
      1 C          63.1584   89.3681   12.4803 C.2     1  UNL1        0.2320
      2 O          63.8671   88.5014   13.4786 O.2     1  UNL1       -0.2744
      3 N          62.4052   88.7417   11.3443 N.am    1  UNL1       -0.2639
      4 H          61.9400   89.3105   10.6891 H       1  UNL1        0.1567
      5 C          62.3608   87.2487   11.2066 C.ar    1  UNL1        0.1655
      6 N          62.6487   86.2543   12.2920 N.ar    1  UNL1       -0.2239
      7 C          62.4866   84.8790   11.7155 C.ar    1  UNL1        0.0898
      8 C          62.0985   85.0235   10.2738 C.ar    1  UNL1        0.0572
      9 S          62.0208   86.4881    9.9593 S.2     1  UNL1       -0.0508
     10 C          62.6788   83.5862   12.4515 C.ar    1  UNL1        0.0213
     11 C          62.6794   83.5699   13.9514 C.ar    1  UNL1        0.0222
     12 C          62.8716   82.2772   14.6874 C.ar    1  UNL1        0.0989
     13 N          63.0633   81.0005   13.9235 N.ar    1  UNL1       -0.2423
     14 C          63.0627   81.0168   12.4236 C.ar    1  UNL1        0.0989
     15 C          62.8705   82.3096   11.6876 C.ar    1  UNL1        0.0222
     16 C          63.2027   90.8610   12.6181 C.3     1  UNL1        0.1118
     17 C          66.7234   92.6769   12.8582 C.ar    1  UNL1        0.1384
     18 C          66.9111   93.1203   11.4376 C.ar    1  UNL1        0.0369
     19 C          65.8627   92.8106   10.4105 C.ar    1  UNL1        0.0028
     20 C          64.6266   92.0576   10.8039 C.ar    1  UNL1       -0.0036
     21 C          64.4389   91.6142   12.2245 C.ar    1  UNL1       -0.0101
     22 C          65.4873   91.9238   13.2516 C.ar    1  UNL1        0.0331
     23 C          67.3716   93.2777   15.3013 C.3     1  UNL1        0.2525
     24 O          67.7718   92.9865   13.8853 O.3     1  UNL1       -0.4714
@<TRIPOS>BOND
     1    23    24    1
     2    24    17    1
     3    17    18   ar
     4    18    19   ar
     5    19    20   ar
     6    20    21   ar
     7    21    16    1
     8    16     1    1
     9     1     2    2
    10     1     3   am
    11     3     5    1
    12     5     6   ar
    13     6     7   ar
    14     7    10    1
    15    10    11   ar
    16    11    12   ar
    17    12    13   ar
    18    13    14   ar
    19    14    15   ar
    20     7     8   ar
    21     8     9   ar
    22    21    22   ar
    23    22    17   ar
    24     9     5   ar
    25    15    10   ar
    26     3     4    1
@<TRIPOS>MOLECULE
*****
 24 26 0 0 0
SMALL
GASTEIGER

@<TRIPOS>ATOM
      1 C          63.2383   89.3554   12.6608 C.2     1  UNL1        0.2320
      2 O          63.8383   88.4428   13.6890 O.2     1  UNL1       -0.2744
      3 N          62.5288   88.7807   11.4706 N.am    1  UNL1       -0.2639
      4 H          62.1350   89.3796   10.7958 H       1  UNL1        0.1567
      5 C          62.4194   87.2935   11.3087 C.ar    1  UNL1        0.1655
      6 N          62.7290   86.2672   12.3579 N.ar    1  UNL1       -0.2239
      7 C          62.4822   84.9109   11.7668 C.ar    1  UNL1        0.0898
      8 C          62.0200   85.0989   10.3522 C.ar    1  UNL1        0.0572
      9 S          61.9813   86.5714   10.0691 S.2     1  UNL1       -0.0508
     10 C          62.6653   83.5972   12.4673 C.ar    1  UNL1        0.0213
     11 C          62.8362   82.3389   11.6689 C.ar    1  UNL1        0.0222
     12 C          63.0193   81.0252   12.3693 C.ar    1  UNL1        0.0989
     13 N          63.0316   80.9698   13.8683 N.ar    1  UNL1       -0.2423
     14 C          62.8607   82.2281   14.6667 C.ar    1  UNL1        0.0989
     15 C          62.6776   83.5418   13.9662 C.ar    1  UNL1        0.0222
     16 C          63.3477   90.8425   12.8228 C.3     1  UNL1        0.1118
     17 C          66.6485   92.9780   12.2803 C.ar    1  UNL1        0.1384
     18 C          67.3601   92.7346   13.5781 C.ar    1  UNL1        0.0369
     19 C          66.7342   91.8604   14.6242 C.ar    1  UNL1        0.0028
     20 C          65.3968   91.2298   14.3724 C.ar    1  UNL1       -0.0036
     21 C          64.6852   91.4732   13.0746 C.ar    1  UNL1       -0.0101
     22 C          65.3111   92.3473   12.0285 C.ar    1  UNL1        0.0331
     23 C          66.8186   93.7590    9.8083 C.3     1  UNL1        0.2525
     24 O          67.2744   93.8521   11.2343 O.3     1  UNL1       -0.4714
@<TRIPOS>BOND
     1    23    24    1
     2    24    17    1
     3    17    18   ar
     4    18    19   ar
     5    19    20   ar
     6    20    21   ar
     7    21    16    1
     8    16     1    1
     9     1     2    2
    10     1     3   am
    11     3     5    1
    12     5     6   ar
    13     6     7   ar
    14     7    10    1
    15    10    11   ar
    16    11    12   ar
    17    12    13   ar
    18    13    14   ar
    19    14    15   ar
    20     7     8   ar
    21     8     9   ar
    22    21    22   ar
    23    22    17   ar
    24     9     5   ar
    25    15    10   ar
    26     3     4    1
@<TRIPOS>MOLECULE
*****
 24 26 0 0 0
SMALL
GASTEIGER

@<TRIPOS>ATOM
      1 C          63.6002   88.9817   13.5743 C.2     1  UNL1        0.2320
      2 O          63.1711   88.3352   12.2906 O.2     1  UNL1       -0.2744
      3 N          63.9864   88.1327   14.7491 N.am    1  UNL1       -0.2639
      4 H          64.2680   88.5570   15.5917 H       1  UNL1        0.1567
      5 C          63.9435   86.6373   14.6402 C.ar    1  UNL1        0.1655
      6 N          63.7065   85.8512   13.3848 N.ar    1  UNL1       -0.2239
      7 C          63.7466   84.3935   13.7362 C.ar    1  UNL1        0.0898
      8 C          64.0082   84.2787   15.2088 C.ar    1  UNL1        0.0572
      9 S          64.1299   85.6654   15.7674 S.2     1  UNL1       -0.0508
     10 C          63.5580   83.2512   12.7825 C.ar    1  UNL1        0.0213
     11 C          64.0939   83.3449   11.3846 C.ar    1  UNL1        0.0222
     12 C          63.9054   82.2027   10.4309 C.ar    1  UNL1        0.0989
     13 N          63.1809   80.9665   10.8751 N.ar    1  UNL1       -0.2423
     14 C          62.6450   80.8728   12.2729 C.ar    1  UNL1        0.0989
     15 C          62.8336   82.0151   13.2266 C.ar    1  UNL1        0.0222
     16 C          63.6431   90.4771   13.6833 C.3     1  UNL1        0.1118
     17 C          66.6436   92.7367   12.4021 C.ar    1  UNL1        0.1384
     18 C          67.5929   92.6297   13.5586 C.ar    1  UNL1        0.0369
     19 C          67.2256   91.8053   14.7566 C.ar    1  UNL1        0.0028
     20 C          65.9090   91.0877   14.7982 C.ar    1  UNL1       -0.0036
     21 C          64.9598   91.1947   13.6417 C.ar    1  UNL1       -0.0101
     22 C          65.3271   92.0192   12.4437 C.ar    1  UNL1        0.0331
     23 C          67.5084   92.8922    9.9571 C.3     1  UNL1        0.2525
     24 O          67.0109   93.5612   11.2041 O.3     1  UNL1       -0.4714
@<TRIPOS>BOND
     1    23    24    1
     2    24    17    1
     3    17    18   ar
     4    18    19   ar
     5    19    20   ar
     6    20    21   ar
     7    21    16    1
     8    16     1    1
     9     1     2    2
    10     1     3   am
    11     3     5    1
    12     5     6   ar
    13     6     7   ar
    14     7    10    1
    15    10    11   ar
    16    11    12   ar
    17    12    13   ar
    18    13    14   ar
    19    14    15   ar
    20     7     8   ar
    21     8     9   ar
    22    21    22   ar
    23    22    17   ar
    24     9     5   ar
    25    15    10   ar
    26     3     4    1
@<TRIPOS>MOLECULE
*****
 24 26 0 0 0
SMALL
GASTEIGER

@<TRIPOS>ATOM
      1 C          62.3556   89.4363   10.9750 C.2     1  UNL1        0.2320
      2 O          62.3099   90.4982    9.9166 O.2     1  UNL1       -0.2744
      3 N          63.2795   89.5852   12.1474 N.am    1  UNL1       -0.2639
      4 H          63.3096   88.8882   12.8421 H       1  UNL1        0.1567
      5 C          64.1576   90.7959   12.2613 C.ar    1  UNL1        0.1655
      6 N          64.6117   91.6656   11.1267 N.ar    1  UNL1       -0.2239
      7 C          65.4705   92.7568   11.6939 C.ar    1  UNL1        0.0898
      8 C          65.5471   92.5615   13.1792 C.ar    1  UNL1        0.0572
      9 S          64.7357   91.3497   13.5299 S.2     1  UNL1       -0.0508
     10 C          66.1358   93.8511   10.9130 C.ar    1  UNL1        0.0213
     11 C          65.9477   95.2830   11.3186 C.ar    1  UNL1        0.0222
     12 C          66.6130   96.3773   10.5379 C.ar    1  UNL1        0.0989
     13 N          67.4665   96.0398    9.3513 N.ar    1  UNL1       -0.2423
     14 C          67.6546   94.6080    8.9457 C.ar    1  UNL1        0.0989
     15 C          66.9892   93.5137    9.7266 C.ar    1  UNL1        0.0222
     16 C          61.4776   88.2255   10.8611 C.3     1  UNL1        0.1118
     17 C          62.9461   84.5489   11.1367 C.ar    1  UNL1        0.1384
     18 C          63.2551   84.2585    9.6979 C.ar    1  UNL1        0.0369
     19 C          62.9715   85.2904    8.6468 C.ar    1  UNL1        0.0028
     20 C          62.3791   86.6127    9.0345 C.ar    1  UNL1       -0.0036
     21 C          62.0701   86.9031   10.4733 C.ar    1  UNL1       -0.0101
     22 C          62.3536   85.8712   11.5244 C.ar    1  UNL1        0.0331
     23 C          64.2625   83.7844   13.2421 C.3     1  UNL1        0.2525
     24 O          63.2296   83.5170   12.1878 O.3     1  UNL1       -0.4714
@<TRIPOS>BOND
     1    23    24    1
     2    24    17    1
     3    17    18   ar
     4    18    19   ar
     5    19    20   ar
     6    20    21   ar
     7    21    16    1
     8    16     1    1
     9     1     2    2
    10     1     3   am
    11     3     5    1
    12     5     6   ar
    13     6     7   ar
    14     7    10    1
    15    10    11   ar
    16    11    12   ar
    17    12    13   ar
    18    13    14   ar
    19    14    15   ar
    20     7     8   ar
    21     8     9   ar
    22    21    22   ar
    23    22    17   ar
    24     9     5   ar
    25    15    10   ar
    26     3     4    1
@<TRIPOS>MOLECULE
*****
 24 26 0 0 0
SMALL
GASTEIGER

@<TRIPOS>ATOM
      1 C          63.5672   89.3706   13.8092 C.2     1  UNL1        0.2320
      2 O          63.8768   87.9206   13.5818 O.2     1  UNL1       -0.2744
      3 N          62.5083   90.0487   12.9913 N.am    1  UNL1       -0.2639
      4 H          62.3051   91.0003   13.1405 H       1  UNL1        0.1567
      5 C          61.7591   89.2768   11.9459 C.ar    1  UNL1        0.1655
      6 N          62.3525   88.2916   10.9830 N.ar    1  UNL1       -0.2239
      7 C          61.2450   87.7604   10.1219 C.ar    1  UNL1        0.0898
      8 C          59.9671   88.4174   10.5527 C.ar    1  UNL1        0.0572
      9 S          60.2849   89.3545   11.6800 S.2     1  UNL1       -0.0508
     10 C          61.3900   86.7498    9.0230 C.ar    1  UNL1        0.0213
     11 C          62.6910   86.0272    8.8354 C.ar    1  UNL1        0.0222
     12 C          62.8360   85.0166    7.7365 C.ar    1  UNL1        0.0989
     13 N          61.6799   84.7285    6.8252 N.ar    1  UNL1       -0.2423
     14 C          60.3788   85.4510    7.0128 C.ar    1  UNL1        0.0989
     15 C          60.2339   86.4617    8.1117 C.ar    1  UNL1        0.0222
     16 C          64.3165   90.1425   14.8545 C.3     1  UNL1        0.1118
     17 C          65.8685   93.0675   12.6668 C.ar    1  UNL1        0.1384
     18 C          66.7225   93.7614   13.6862 C.ar    1  UNL1        0.0369
     19 C          66.7745   93.2490   15.0950 C.ar    1  UNL1        0.0028
     20 C          65.9725   92.0427   15.4845 C.ar    1  UNL1       -0.0036
     21 C          65.1185   91.3488   14.4651 C.ar    1  UNL1       -0.0101
     22 C          65.0665   91.8612   13.0563 C.ar    1  UNL1        0.0331
     23 C          66.1146   95.0220   10.9730 C.3     1  UNL1        0.2525
     24 O          65.8165   93.5798   11.2580 O.3     1  UNL1       -0.4714
@<TRIPOS>BOND
     1    23    24    1
     2    24    17    1
     3    17    18   ar
     4    18    19   ar
     5    19    20   ar
     6    20    21   ar
     7    21    16    1
     8    16     1    1
     9     1     2    2
    10     1     3   am
    11     3     5    1
    12     5     6   ar
    13     6     7   ar
    14     7    10    1
    15    10    11   ar
    16    11    12   ar
    17    12    13   ar
    18    13    14   ar
    19    14    15   ar
    20     7     8   ar
    21     8     9   ar
    22    21    22   ar
    23    22    17   ar
    24     9     5   ar
    25    15    10   ar
    26     3     4    1
@<TRIPOS>MOLECULE
*****
 24 26 0 0 0
SMALL
GASTEIGER

@<TRIPOS>ATOM
      1 C          63.4675   89.4418   13.8298 C.2     1  UNL1        0.2320
      2 O          63.8495   88.0126   13.5820 O.2     1  UNL1       -0.2744
      3 N          62.3773   90.0781   13.0193 N.am    1  UNL1       -0.2639
      4 H          62.1265   91.0161   13.1820 H       1  UNL1        0.1567
      5 C          61.6693   89.2851   11.9611 C.ar    1  UNL1        0.1655
      6 N          62.3064   88.3108   11.0152 N.ar    1  UNL1       -0.2239
      7 C          61.2308   87.7508   10.1324 C.ar    1  UNL1        0.0898
      8 C          59.9288   88.3791   10.5326 C.ar    1  UNL1        0.0572
      9 S          60.1998   89.3274   11.6628 S.2     1  UNL1       -0.0508
     10 C          61.4233   86.7400    9.0410 C.ar    1  UNL1        0.0213
     11 C          60.3001   86.4348    8.0948 C.ar    1  UNL1        0.0222
     12 C          60.4925   85.4241    7.0034 C.ar    1  UNL1        0.0989
     13 N          61.8082   84.7183    6.8581 N.ar    1  UNL1       -0.2423
     14 C          62.9314   85.0235    7.8043 C.ar    1  UNL1        0.0989
     15 C          62.7389   86.0343    8.8958 C.ar    1  UNL1        0.0222
     16 C          64.1755   90.2347   14.8881 C.3     1  UNL1        0.1118
     17 C          66.8660   93.1412   15.1397 C.ar    1  UNL1        0.1384
     18 C          66.9010   93.6189   13.7183 C.ar    1  UNL1        0.0369
     19 C          66.0275   92.9685   12.6868 C.ar    1  UNL1        0.0028
     20 C          65.1190   91.8405   13.0767 C.ar    1  UNL1       -0.0036
     21 C          65.0840   91.3628   14.4981 C.ar    1  UNL1       -0.0101
     22 C          65.9575   92.0132   15.5297 C.ar    1  UNL1        0.0331
     23 C          69.1955   94.0147   15.8883 C.3     1  UNL1        0.2525
     24 O          67.7394   93.7916   16.1713 O.3     1  UNL1       -0.4714
@<TRIPOS>BOND
     1    23    24    1
     2    24    17    1
     3    17    18   ar
     4    18    19   ar
     5    19    20   ar
     6    20    21   ar
     7    21    16    1
     8    16     1    1
     9     1     2    2
    10     1     3   am
    11     3     5    1
    12     5     6   ar
    13     6     7   ar
    14     7    10    1
    15    10    11   ar
    16    11    12   ar
    17    12    13   ar
    18    13    14   ar
    19    14    15   ar
    20     7     8   ar
    21     8     9   ar
    22    21    22   ar
    23    22    17   ar
    24     9     5   ar
    25    15    10   ar
    26     3     4    1
