@<TRIPOS>MOLECULE
*****
 28 32 0 0 0
SMALL
GASTEIGER

@<TRIPOS>ATOM
      1 C          61.5903   87.4243   10.5736 C.ar    1  UNL1        0.0872
      2 C          62.3450   88.5582   11.2017 C.ar    1  UNL1        0.0535
      3 C          63.2282   88.3055   12.3875 C.ar    1  UNL1        0.1351
      4 N          63.3568   86.9190   12.9451 N.ar    1  UNL1       -0.2119
      5 C          62.6020   85.7851   12.3169 C.ar    1  UNL1        0.1637
      6 N          61.7188   86.0377   11.1312 N.ar    1  UNL1       -0.2264
      7 N          63.9830   89.4395   13.0157 N.pl3   1  UNL1       -0.2887
      8 C          64.3321   89.3915   14.4737 C.3     1  UNL1        0.0971
      9 C          65.0868   90.5253   15.1020 C.3     1  UNL1        0.0475
     10 C          65.4925   91.7073   14.2722 C.ar    1  UNL1       -0.0228
     11 C          66.2472   92.8411   14.9004 C.ar    1  UNL1       -0.0045
     12 C          66.6529   94.0230   14.0706 C.ar    1  UNL1       -0.0003
     13 C          66.3038   94.0710   12.6126 C.ar    1  UNL1       -0.0003
     14 C          65.5491   92.9371   11.9843 C.ar    1  UNL1       -0.0029
     15 C          65.1434   91.7553   12.8141 C.ar    1  UNL1       -0.0063
     16 C          64.3887   90.6213   12.1859 C.3     1  UNL1        0.1186
     17 C          59.1135   86.7868    7.5389 C.ar    1  UNL1        0.0207
     18 C          58.9406   88.1821    7.0162 C.ar    1  UNL1        0.0989
     19 N          59.6509   89.3248    7.6794 N.ar    1  UNL1       -0.2423
     20 C          60.5341   89.0722    8.8651 C.ar    1  UNL1        0.1003
     21 C          60.7071   87.6769    9.3878 C.ar    1  UNL1        0.0370
     22 C          59.9968   86.5342    8.7246 C.ar    1  UNL1        0.0046
     23 C          62.7305   84.3985   12.8745 C.ar    1  UNL1        0.0389
     24 C          62.7161   84.1827   14.3588 C.ar    1  UNL1        0.0237
     25 C          62.8446   82.7961   14.9164 C.ar    1  UNL1        0.0990
     26 N          62.9876   81.6254   13.9897 N.ar    1  UNL1       -0.2423
     27 C          63.0020   81.8412   12.5054 C.ar    1  UNL1        0.0990
     28 C          62.8735   83.2277   11.9478 C.ar    1  UNL1        0.0237
@<TRIPOS>BOND
     1    17    18   ar
     2    18    19   ar
     3    19    20   ar
     4    20    21   ar
     5    21     1    1
     6     1     2   ar
     7     2     3   ar
     8     3     7    1
     9     7     8    1
    10     8     9    1
    11     9    10    1
    12    10    11   ar
    13    11    12   ar
    14    12    13   ar
    15    13    14   ar
    16    14    15   ar
    17    15    16    1
    18     3     4   ar
    19     4     5   ar
    20     5    23    1
    21    23    24   ar
    22    24    25   ar
    23    25    26   ar
    24    26    27   ar
    25    27    28   ar
    26     5     6   ar
    27    21    22   ar
    28    22    17   ar
    29     6     1   ar
    30    16     7    1
    31    28    23   ar
    32    15    10   ar
@<TRIPOS>MOLECULE
*****
 28 32 0 0 0
SMALL
GASTEIGER

@<TRIPOS>ATOM
      1 C          62.5784   85.6421   12.2723 C.ar    1  UNL1        0.0872
      2 C          63.3298   86.7631   12.9271 C.ar    1  UNL1        0.0535
      3 C          63.1929   88.1628   12.4057 C.ar    1  UNL1        0.1351
      4 N          62.3047   88.4416   11.2295 N.ar    1  UNL1       -0.2119
      5 C          61.5533   87.3206   10.5747 C.ar    1  UNL1        0.1637
      6 N          61.6902   85.9208   11.0962 N.ar    1  UNL1       -0.2264
      7 N          63.9443   89.2839   13.0604 N.pl3   1  UNL1       -0.2887
      8 C          64.3061   89.1963   14.5135 C.3     1  UNL1        0.0971
      9 C          65.0574   90.3173   15.1683 C.3     1  UNL1        0.0475
     10 C          65.4470   91.5260   14.3700 C.ar    1  UNL1       -0.0228
     11 C          66.1984   92.6470   15.0247 C.ar    1  UNL1       -0.0045
     12 C          66.5879   93.8557   14.2264 C.ar    1  UNL1       -0.0003
     13 C          66.2262   93.9433   12.7734 C.ar    1  UNL1       -0.0003
     14 C          65.4748   92.8223   12.1186 C.ar    1  UNL1       -0.0029
     15 C          65.0853   91.6137   12.9169 C.ar    1  UNL1       -0.0063
     16 C          64.3339   90.4926   12.2621 C.3     1  UNL1        0.1186
     17 C          62.9249   81.6895   12.3583 C.ar    1  UNL1        0.0207
     18 C          62.9889   81.4427   13.8364 C.ar    1  UNL1        0.0989
     19 N          62.9160   82.5956   14.7932 N.ar    1  UNL1       -0.2423
     20 C          62.7792   83.9954   14.2719 C.ar    1  UNL1        0.1003
     21 C          62.7152   84.2422   12.7937 C.ar    1  UNL1        0.0370
     22 C          62.7880   83.0893   11.8370 C.ar    1  UNL1        0.0046
     23 C          60.6651   87.5993    9.3986 C.ar    1  UNL1        0.0389
     24 C          59.9686   86.4692    8.7003 C.ar    1  UNL1        0.0237
     25 C          59.0804   86.7480    7.5241 C.ar    1  UNL1        0.0990
     26 N          58.8887   88.1568    7.0462 N.ar    1  UNL1       -0.2423
     27 C          59.5853   89.2869    7.7445 C.ar    1  UNL1        0.0990
     28 C          60.4735   89.0081    8.9207 C.ar    1  UNL1        0.0237
@<TRIPOS>BOND
     1    17    18   ar
     2    18    19   ar
     3    19    20   ar
     4    20    21   ar
     5    21     1    1
     6     1     2   ar
     7     2     3   ar
     8     3     7    1
     9     7     8    1
    10     8     9    1
    11     9    10    1
    12    10    11   ar
    13    11    12   ar
    14    12    13   ar
    15    13    14   ar
    16    14    15   ar
    17    15    16    1
    18     3     4   ar
    19     4     5   ar
    20     5    23    1
    21    23    24   ar
    22    24    25   ar
    23    25    26   ar
    24    26    27   ar
    25    27    28   ar
    26     5     6   ar
    27    21    22   ar
    28    22    17   ar
    29     6     1   ar
    30    16     7    1
    31    28    23   ar
    32    15    10   ar
@<TRIPOS>MOLECULE
*****
 28 32 0 0 0
SMALL
GASTEIGER

@<TRIPOS>ATOM
      1 C          61.6982   87.7407   10.6984 C.ar    1  UNL1        0.0872
      2 C          62.4671   88.9657   11.0957 C.ar    1  UNL1        0.0535
      3 C          63.4283   88.9077   12.2459 C.ar    1  UNL1        0.1351
      4 N          63.6204   87.6247   12.9987 N.ar    1  UNL1       -0.2119
      5 C          62.8515   86.3996   12.6014 C.ar    1  UNL1        0.1637
      6 N          61.8904   86.4576   11.4513 N.ar    1  UNL1       -0.2264
      7 N          64.1972   90.1329   12.6432 N.pl3   1  UNL1       -0.2887
      8 C          64.2165   91.3315   11.7416 C.3     1  UNL1        0.0971
      9 C          64.9854   92.5566   12.1389 C.3     1  UNL1        0.0475
     10 C          65.7352   92.5831   13.4379 C.ar    1  UNL1       -0.0228
     11 C          66.5041   93.8081   13.8351 C.ar    1  UNL1       -0.0045
     12 C          67.2538   93.8346   15.1341 C.ar    1  UNL1       -0.0003
     13 C          67.2345   92.6360   16.0357 C.ar    1  UNL1       -0.0003
     14 C          66.4656   91.4109   15.6384 C.ar    1  UNL1       -0.0029
     15 C          65.7159   91.3844   14.3395 C.ar    1  UNL1       -0.0063
     16 C          64.9469   90.1593   13.9421 C.3     1  UNL1        0.1186
     17 C          59.1740   86.5927    7.8593 C.ar    1  UNL1        0.0207
     18 C          58.8148   87.9145    7.2480 C.ar    1  UNL1        0.0989
     19 N          59.4167   89.1783    7.7868 N.ar    1  UNL1       -0.2423
     20 C          60.3778   89.1204    8.9369 C.ar    1  UNL1        0.1003
     21 C          60.7370   87.7986    9.5482 C.ar    1  UNL1        0.0370
     22 C          60.1351   86.5348    9.0094 C.ar    1  UNL1        0.0046
     23 C          63.0437   85.1165   13.3542 C.ar    1  UNL1        0.0389
     24 C          62.7260   83.8063   12.6967 C.ar    1  UNL1        0.0237
     25 C          62.9182   82.5232   13.4495 C.ar    1  UNL1        0.0990
     26 N          63.4281   82.5503   14.8599 N.ar    1  UNL1       -0.2423
     27 C          63.7458   83.8605   15.5174 C.ar    1  UNL1        0.0990
     28 C          63.5536   85.1436   14.7646 C.ar    1  UNL1        0.0237
@<TRIPOS>BOND
     1    17    18   ar
     2    18    19   ar
     3    19    20   ar
     4    20    21   ar
     5    21     1    1
     6     1     2   ar
     7     2     3   ar
     8     3     7    1
     9     7     8    1
    10     8     9    1
    11     9    10    1
    12    10    11   ar
    13    11    12   ar
    14    12    13   ar
    15    13    14   ar
    16    14    15   ar
    17    15    16    1
    18     3     4   ar
    19     4     5   ar
    20     5    23    1
    21    23    24   ar
    22    24    25   ar
    23    25    26   ar
    24    26    27   ar
    25    27    28   ar
    26     5     6   ar
    27    21    22   ar
    28    22    17   ar
    29     6     1   ar
    30    16     7    1
    31    28    23   ar
    32    15    10   ar
@<TRIPOS>MOLECULE
*****
 28 32 0 0 0
SMALL
GASTEIGER

@<TRIPOS>ATOM
      1 C          61.6067   87.9248   10.5007 C.ar    1  UNL1        0.0872
      2 C          61.7744   86.5468   11.0691 C.ar    1  UNL1        0.0535
      3 C          62.6731   86.3269   12.2498 C.ar    1  UNL1        0.1351
      4 N          63.4039   87.4849   12.8621 N.ar    1  UNL1       -0.2119
      5 C          63.2362   88.8628   12.2936 C.ar    1  UNL1        0.1637
      6 N          62.3376   89.0827   11.1130 N.ar    1  UNL1       -0.2264
      7 N          62.8408   84.9489   12.8183 N.pl3   1  UNL1       -0.2887
      8 C          63.2399   84.7732   14.2535 C.3     1  UNL1        0.0971
      9 C          63.4077   83.3954   14.8220 C.3     1  UNL1        0.0475
     10 C          63.1764   82.1931   13.9553 C.ar    1  UNL1       -0.0228
     11 C          63.3442   80.8152   14.5238 C.ar    1  UNL1       -0.0045
     12 C          63.1129   79.6130   13.6571 C.ar    1  UNL1       -0.0003
     13 C          62.7138   79.7887   12.2219 C.ar    1  UNL1       -0.0003
     14 C          62.5460   81.1666   11.6534 C.ar    1  UNL1       -0.0029
     15 C          62.7773   82.3688   12.5201 C.ar    1  UNL1       -0.0063
     16 C          62.6095   83.7468   11.9516 C.3     1  UNL1        0.1186
     17 C          59.1363   87.1968    7.4812 C.ar    1  UNL1        0.0207
     18 C          58.9108   88.5846    6.9586 C.ar    1  UNL1        0.0989
     19 N          59.5840   89.7524    7.6166 N.ar    1  UNL1       -0.2423
     20 C          60.4826   89.5325    8.7973 C.ar    1  UNL1        0.1003
     21 C          60.7080   88.1447    9.3199 C.ar    1  UNL1        0.0370
     22 C          60.0349   86.9769    8.6619 C.ar    1  UNL1        0.0046
     23 C          63.9671   90.0208   12.9059 C.ar    1  UNL1        0.0389
     24 C          64.3603   89.9791   14.3528 C.ar    1  UNL1        0.0237
     25 C          65.0912   91.1371   14.9651 C.ar    1  UNL1        0.0990
     26 N          65.4289   92.3368   14.1304 N.ar    1  UNL1       -0.2423
     27 C          65.0356   92.3785   12.6835 C.ar    1  UNL1        0.0990
     28 C          64.3048   91.2205   12.0712 C.ar    1  UNL1        0.0237
@<TRIPOS>BOND
     1    17    18   ar
     2    18    19   ar
     3    19    20   ar
     4    20    21   ar
     5    21     1    1
     6     1     2   ar
     7     2     3   ar
     8     3     7    1
     9     7     8    1
    10     8     9    1
    11     9    10    1
    12    10    11   ar
    13    11    12   ar
    14    12    13   ar
    15    13    14   ar
    16    14    15   ar
    17    15    16    1
    18     3     4   ar
    19     4     5   ar
    20     5    23    1
    21    23    24   ar
    22    24    25   ar
    23    25    26   ar
    24    26    27   ar
    25    27    28   ar
    26     5     6   ar
    27    21    22   ar
    28    22    17   ar
    29     6     1   ar
    30    16     7    1
    31    28    23   ar
    32    15    10   ar
@<TRIPOS>MOLECULE
*****
 28 32 0 0 0
SMALL
GASTEIGER

@<TRIPOS>ATOM
      1 C          62.8108   86.4593   12.4065 C.ar    1  UNL1        0.0872
      2 C          63.5832   87.6839   12.7985 C.ar    1  UNL1        0.0535
      3 C          63.3733   88.9717   12.0588 C.ar    1  UNL1        0.1351
      4 N          62.3908   89.0351   10.9271 N.ar    1  UNL1       -0.2119
      5 C          61.6184   87.8105   10.5351 C.ar    1  UNL1        0.1637
      6 N          61.8283   86.5226   11.2748 N.ar    1  UNL1       -0.2264
      7 N          64.1457   90.1964   12.4508 N.pl3   1  UNL1       -0.2887
      8 C          64.2390   91.3584   11.5068 C.3     1  UNL1        0.0971
      9 C          65.0114   92.5830   11.8987 C.3     1  UNL1        0.0475
     10 C          65.6906   92.6457   13.2347 C.ar    1  UNL1       -0.0228
     11 C          66.4631   93.8703   13.6267 C.ar    1  UNL1       -0.0045
     12 C          67.1422   93.9329   14.9626 C.ar    1  UNL1       -0.0003
     13 C          67.0489   92.7710   15.9066 C.ar    1  UNL1       -0.0003
     14 C          66.2765   91.5464   15.5147 C.ar    1  UNL1       -0.0029
     15 C          65.5974   91.4837   14.1787 C.ar    1  UNL1       -0.0063
     16 C          64.8249   90.2591   13.7868 C.3     1  UNL1        0.1186
     17 C          63.8159   83.8986   15.2671 C.ar    1  UNL1        0.0207
     18 C          63.4407   82.5956   14.6257 C.ar    1  UNL1        0.0989
     19 N          62.8555   82.5805   13.2447 N.ar    1  UNL1       -0.2423
     20 C          62.6455   83.8683   12.5049 C.ar    1  UNL1        0.1003
     21 C          63.0207   85.1713   13.1463 C.ar    1  UNL1        0.0370
     22 C          63.6059   85.1865   14.5273 C.ar    1  UNL1        0.0046
     23 C          60.6359   87.8738    9.4033 C.ar    1  UNL1        0.0389
     24 C          60.3182   89.1904    8.7587 C.ar    1  UNL1        0.0237
     25 C          59.3358   89.2537    7.6270 C.ar    1  UNL1        0.0990
     26 N          58.6711   88.0005    7.1399 N.ar    1  UNL1       -0.2423
     27 C          58.9887   86.6839    7.7845 C.ar    1  UNL1        0.0990
     28 C          59.9712   86.6205    8.9162 C.ar    1  UNL1        0.0237
@<TRIPOS>BOND
     1    17    18   ar
     2    18    19   ar
     3    19    20   ar
     4    20    21   ar
     5    21     1    1
     6     1     2   ar
     7     2     3   ar
     8     3     7    1
     9     7     8    1
    10     8     9    1
    11     9    10    1
    12    10    11   ar
    13    11    12   ar
    14    12    13   ar
    15    13    14   ar
    16    14    15   ar
    17    15    16    1
    18     3     4   ar
    19     4     5   ar
    20     5    23    1
    21    23    24   ar
    22    24    25   ar
    23    25    26   ar
    24    26    27   ar
    25    27    28   ar
    26     5     6   ar
    27    21    22   ar
    28    22    17   ar
    29     6     1   ar
    30    16     7    1
    31    28    23   ar
    32    15    10   ar
@<TRIPOS>MOLECULE
*****
 28 32 0 0 0
SMALL
GASTEIGER

@<TRIPOS>ATOM
      1 C          63.3026   88.8920   12.3397 C.ar    1  UNL1        0.0872
      2 C          63.4708   87.5128   12.9049 C.ar    1  UNL1        0.0535
      3 C          62.7239   86.3595   12.3032 C.ar    1  UNL1        0.1351
      4 N          61.8088   86.5854   11.1364 N.ar    1  UNL1       -0.2119
      5 C          61.6406   87.9645   10.5712 C.ar    1  UNL1        0.1637
      6 N          62.3874   89.1179   11.1728 N.ar    1  UNL1       -0.2264
      7 N          62.8922   84.9802   12.8685 N.pl3   1  UNL1       -0.2887
      8 C          63.3377   84.8013   14.2896 C.3     1  UNL1        0.0971
      9 C          63.5059   83.4221   14.8548 C.3     1  UNL1        0.0475
     10 C          63.2286   82.2218   13.9989 C.ar    1  UNL1       -0.0228
     11 C          63.3968   80.8426   14.5641 C.ar    1  UNL1       -0.0045
     12 C          63.1196   79.6424   13.7082 C.ar    1  UNL1       -0.0003
     13 C          62.6741   79.8214   12.2872 C.ar    1  UNL1       -0.0003
     14 C          62.5059   81.2005   11.7219 C.ar    1  UNL1       -0.0029
     15 C          62.7831   82.4007   12.5778 C.ar    1  UNL1       -0.0063
     16 C          62.6149   83.7800   12.0126 C.3     1  UNL1        0.1186
     17 C          65.3783   91.0788   14.9202 C.ar    1  UNL1        0.0207
     18 C          65.5432   92.3520   14.1446 C.ar    1  UNL1        0.0989
     19 N          64.9612   92.4719   12.7673 N.ar    1  UNL1       -0.2423
     20 C          64.2143   91.3186   12.1657 C.ar    1  UNL1        0.1003
     21 C          64.0494   90.0454   12.9413 C.ar    1  UNL1        0.0370
     22 C          64.6314   89.9255   14.3186 C.ar    1  UNL1        0.0046
     23 C          60.7254   88.1904    9.4043 C.ar    1  UNL1        0.0389
     24 C          59.9965   87.0334    8.7880 C.ar    1  UNL1        0.0237
     25 C          59.0814   87.2593    7.6211 C.ar    1  UNL1        0.0990
     26 N          58.8952   88.6422    7.0706 N.ar    1  UNL1       -0.2423
     27 C          59.6242   89.7991    7.6870 C.ar    1  UNL1        0.0990
     28 C          60.5393   89.5732    8.8539 C.ar    1  UNL1        0.0237
@<TRIPOS>BOND
     1    17    18   ar
     2    18    19   ar
     3    19    20   ar
     4    20    21   ar
     5    21     1    1
     6     1     2   ar
     7     2     3   ar
     8     3     7    1
     9     7     8    1
    10     8     9    1
    11     9    10    1
    12    10    11   ar
    13    11    12   ar
    14    12    13   ar
    15    13    14   ar
    16    14    15   ar
    17    15    16    1
    18     3     4   ar
    19     4     5   ar
    20     5    23    1
    21    23    24   ar
    22    24    25   ar
    23    25    26   ar
    24    26    27   ar
    25    27    28   ar
    26     5     6   ar
    27    21    22   ar
    28    22    17   ar
    29     6     1   ar
    30    16     7    1
    31    28    23   ar
    32    15    10   ar
