@<TRIPOS>MOLECULE
*****
 14 14 0 0 0
SMALL
GASTEIGER

@<TRIPOS>ATOM
      1 C          65.6253   92.9948   12.0407 C.ar    1  UNL1        0.1286
      2 C          64.9321   92.4863   10.8115 C.ar    1  UNL1        0.0342
      3 C          63.9507   91.3568   10.9170 C.ar    1  UNL1        0.0089
      4 C          63.6624   90.7359   12.2517 C.ar    1  UNL1        0.0724
      5 C          64.3556   91.2445   13.4808 C.ar    1  UNL1        0.1048
      6 N          65.3370   92.3739   13.3753 N.ar    1  UNL1       -0.2292
      7 C          62.6810   89.6065   12.3571 C.2     1  UNL1        0.2443
      8 N          61.2183   89.8966   12.5196 N.am    1  UNL1       -0.3253
      9 O          63.1622   88.1870   12.3002 O.2     1  UNL1       -0.2703
     10 H          60.9024   90.8283   12.5570 H       1  UNL1        0.1453
     11 H          60.5742   89.1553   12.5889 H       1  UNL1        0.1453
     12 C          66.5967   95.0164   10.7294 C.3     1  UNL1        0.1096
     13 N          66.6067   94.1243   11.9352 N.pl3   1  UNL1       -0.3167
     14 H          67.2574   94.2801   12.6574 H       1  UNL1        0.1482
@<TRIPOS>BOND
     1    12    13    1
     2    13     1    1
     3     1     2   ar
     4     2     3   ar
     5     3     4   ar
     6     4     7    1
     7     7     8   am
     8     7     9    2
     9     4     5   ar
    10     5     6   ar
    11     6     1   ar
    12    13    14    1
    13     8    10    1
    14     8    11    1
@<TRIPOS>MOLECULE
*****
 14 14 0 0 0
SMALL
GASTEIGER

@<TRIPOS>ATOM
      1 C          66.7457   92.7566   11.2183 C.ar    1  UNL1        0.1286
      2 C          65.3986   92.3676   10.6854 C.ar    1  UNL1        0.0342
      3 C          64.3759   91.7628   11.6010 C.ar    1  UNL1        0.0089
      4 C          64.7003   91.5471   13.0495 C.ar    1  UNL1        0.0724
      5 C          66.0474   91.9361   13.5824 C.ar    1  UNL1        0.1048
      6 N          67.0701   92.5409   12.6668 N.ar    1  UNL1       -0.2292
      7 C          63.6777   90.9423   13.9652 C.2     1  UNL1        0.2443
      8 N          62.6529   89.9915   13.4213 N.am    1  UNL1       -0.3253
      9 O          63.6797   91.2884   15.4247 O.2     1  UNL1       -0.2703
     10 H          62.6516   89.7644   12.4634 H       1  UNL1        0.1453
     11 H          61.9817   89.5946   14.0223 H       1  UNL1        0.1453
     12 C          68.5300   92.4896    9.3488 C.3     1  UNL1        0.1096
     13 N          67.7684   93.3614   10.3026 N.pl3   1  UNL1       -0.3167
     14 H          67.9397   94.3306   10.3277 H       1  UNL1        0.1482
@<TRIPOS>BOND
     1    12    13    1
     2    13     1    1
     3     1     2   ar
     4     2     3   ar
     5     3     4   ar
     6     4     7    1
     7     7     8   am
     8     7     9    2
     9     4     5   ar
    10     5     6   ar
    11     6     1   ar
    12    13    14    1
    13     8    10    1
    14     8    11    1
@<TRIPOS>MOLECULE
*****
 14 14 0 0 0
SMALL
GASTEIGER

@<TRIPOS>ATOM
      1 C          61.1944   86.3774    9.6156 C.ar    1  UNL1        0.1286
      2 C          62.1421   85.7382    8.6444 C.ar    1  UNL1        0.0342
      3 C          63.1643   84.7542    9.1311 C.ar    1  UNL1        0.0089
      4 C          63.2388   84.4094   10.5890 C.ar    1  UNL1        0.0724
      5 C          62.2911   85.0486   11.5602 C.ar    1  UNL1        0.1048
      6 N          61.2689   86.0325   11.0735 N.ar    1  UNL1       -0.2292
      7 C          64.2610   83.4254   11.0757 C.2     1  UNL1        0.2443
      8 N          64.7333   83.4765   12.4985 N.am    1  UNL1       -0.3253
      9 O          64.8109   82.3904   10.1397 O.2     1  UNL1       -0.2703
     10 H          64.3724   84.1558   13.1129 H       1  UNL1        0.1453
     11 H          65.4042   82.8307   12.8179 H       1  UNL1        0.1453
     12 C          59.2311   86.9808    8.0246 C.3     1  UNL1        0.1096
     13 N          60.1722   87.3614    9.1289 N.pl3   1  UNL1       -0.3167
     14 H          60.1190   88.2569    9.5342 H       1  UNL1        0.1482
@<TRIPOS>BOND
     1    12    13    1
     2    13     1    1
     3     1     2   ar
     4     2     3   ar
     5     3     4   ar
     6     4     7    1
     7     7     8   am
     8     7     9    2
     9     4     5   ar
    10     5     6   ar
    11     6     1   ar
    12    13    14    1
    13     8    10    1
    14     8    11    1
@<TRIPOS>MOLECULE
*****
 14 14 0 0 0
SMALL
GASTEIGER

@<TRIPOS>ATOM
      1 C          61.2526   89.0572   11.4235 C.ar    1  UNL1        0.1286
      2 C          60.7915   89.6711   10.1349 C.ar    1  UNL1        0.0342
      3 C          60.4150   88.7933    8.9784 C.ar    1  UNL1        0.0089
      4 C          60.4996   87.3016    9.1103 C.ar    1  UNL1        0.0724
      5 C          60.9607   86.6876   10.3989 C.ar    1  UNL1        0.1048
      6 N          61.3372   87.5655   11.5555 N.ar    1  UNL1       -0.2292
      7 C          60.1231   86.4238    7.9538 C.2     1  UNL1        0.2443
      8 N          58.7111   86.4145    7.4478 N.am    1  UNL1       -0.3253
      9 O          61.1586   85.5553    7.3031 O.2     1  UNL1       -0.2703
     10 H          58.0314   86.9845    7.8748 H       1  UNL1        0.1453
     11 H          58.4640   85.8383    6.6887 H       1  UNL1        0.1453
     12 C          63.0663   90.0581   12.9915 C.3     1  UNL1        0.1096
     13 N          61.6291   89.9350   12.5801 N.pl3   1  UNL1       -0.3167
     14 H          60.9329   90.4303   13.0692 H       1  UNL1        0.1482
@<TRIPOS>BOND
     1    12    13    1
     2    13     1    1
     3     1     2   ar
     4     2     3   ar
     5     3     4   ar
     6     4     7    1
     7     7     8   am
     8     7     9    2
     9     4     5   ar
    10     5     6   ar
    11     6     1   ar
    12    13    14    1
    13     8    10    1
    14     8    11    1
@<TRIPOS>MOLECULE
*****
 14 14 0 0 0
SMALL
GASTEIGER

@<TRIPOS>ATOM
      1 C          66.1011   92.6148   12.5495 C.ar    1  UNL1        0.1286
      2 C          66.6105   92.0525   13.8434 C.ar    1  UNL1        0.0342
      3 C          65.8313   90.9878   14.5570 C.ar    1  UNL1        0.0089
      4 C          64.5426   90.4853   13.9766 C.ar    1  UNL1        0.0724
      5 C          64.0332   91.0476   12.6827 C.ar    1  UNL1        0.1048
      6 N          64.8124   92.1123   11.9691 N.ar    1  UNL1       -0.2292
      7 C          63.7634   89.4206   14.6902 C.2     1  UNL1        0.2443
      8 N          64.2080   87.9898   14.6174 N.am    1  UNL1       -0.3253
      9 O          62.5396   89.7865   15.4765 O.2     1  UNL1       -0.2703
     10 H          65.0112   87.7496   14.1013 H       1  UNL1        0.1453
     11 H          63.6966   87.2910   15.0857 H       1  UNL1        0.1453
     12 C          66.1808   94.9016   11.3190 C.3     1  UNL1        0.1096
     13 N          66.8803   93.6795   11.8360 N.pl3   1  UNL1       -0.3167
     14 H          67.8508   93.5762   11.7069 H       1  UNL1        0.1482
@<TRIPOS>BOND
     1    12    13    1
     2    13     1    1
     3     1     2   ar
     4     2     3   ar
     5     3     4   ar
     6     4     7    1
     7     7     8   am
     8     7     9    2
     9     4     5   ar
    10     5     6   ar
    11     6     1   ar
    12    13    14    1
    13     8    10    1
    14     8    11    1
@<TRIPOS>MOLECULE
*****
 14 14 0 0 0
SMALL
GASTEIGER

@<TRIPOS>ATOM
      1 C          62.1355   86.2775   11.4457 C.ar    1  UNL1        0.1286
      2 C          62.3417   85.6388   10.1043 C.ar    1  UNL1        0.0342
      3 C          61.4849   86.0432    8.9413 C.ar    1  UNL1        0.0089
      4 C          60.4220   87.0864    9.1198 C.ar    1  UNL1        0.0724
      5 C          60.2158   87.7251   10.4612 C.ar    1  UNL1        0.1048
      6 N          61.0725   87.3207   11.6241 N.ar    1  UNL1       -0.2292
      7 C          59.5653   87.4908    7.9568 C.2     1  UNL1        0.2443
      8 N          58.6621   86.4859    7.3053 N.am    1  UNL1       -0.3253
      9 O          59.6116   88.9002    7.4454 O.2     1  UNL1       -0.2703
     10 H          58.6317   85.5609    7.6410 H       1  UNL1        0.1453
     11 H          58.0998   86.7514    6.5420 H       1  UNL1        0.1453
     12 C          62.9739   84.4547   13.0962 C.3     1  UNL1        0.1096
     13 N          62.9922   85.8731   12.6086 N.pl3   1  UNL1       -0.3167
     14 H          63.5665   86.5386   13.0519 H       1  UNL1        0.1482
@<TRIPOS>BOND
     1    12    13    1
     2    13     1    1
     3     1     2   ar
     4     2     3   ar
     5     3     4   ar
     6     4     7    1
     7     7     8   am
     8     7     9    2
     9     4     5   ar
    10     5     6   ar
    11     6     1   ar
    12    13    14    1
    13     8    10    1
    14     8    11    1
@<TRIPOS>MOLECULE
*****
 14 14 0 0 0
SMALL
GASTEIGER

@<TRIPOS>ATOM
      1 C          65.4638   92.6176   12.3883 C.ar    1  UNL1        0.1286
      2 C          65.0872   92.5505   10.9379 C.ar    1  UNL1        0.0342
      3 C          63.9671   91.6569   10.4944 C.ar    1  UNL1        0.0089
      4 C          63.2234   90.8304   11.5013 C.ar    1  UNL1        0.0724
      5 C          63.6000   90.8975   12.9517 C.ar    1  UNL1        0.1048
      6 N          64.7201   91.7911   13.3952 N.ar    1  UNL1       -0.2292
      7 C          62.1033   89.9368   11.0578 C.2     1  UNL1        0.2443
      8 N          61.2278   90.3449    9.9102 N.am    1  UNL1       -0.3253
      9 O          61.8586   88.6352   11.7618 O.2     1  UNL1       -0.2703
     10 H          61.3884   91.1992    9.4481 H       1  UNL1        0.1453
     11 H          60.4926   89.7584    9.6191 H       1  UNL1        0.1453
     12 C          66.8084   93.7635   14.2933 C.3     1  UNL1        0.1096
     13 N          66.5839   93.5112   12.8318 N.pl3   1  UNL1       -0.3167
     14 H          67.1719   93.9321   12.1636 H       1  UNL1        0.1482
@<TRIPOS>BOND
     1    12    13    1
     2    13     1    1
     3     1     2   ar
     4     2     3   ar
     5     3     4   ar
     6     4     7    1
     7     7     8   am
     8     7     9    2
     9     4     5   ar
    10     5     6   ar
    11     6     1   ar
    12    13    14    1
    13     8    10    1
    14     8    11    1
@<TRIPOS>MOLECULE
*****
 14 14 0 0 0
SMALL
GASTEIGER

@<TRIPOS>ATOM
      1 C          63.7916   90.8568   13.2367 C.ar    1  UNL1        0.1286
      2 C          63.5131   90.9120   11.7639 C.ar    1  UNL1        0.0342
      3 C          64.3102   91.8285   10.8837 C.ar    1  UNL1        0.0089
      4 C          65.3858   92.6898   11.4764 C.ar    1  UNL1        0.0724
      5 C          65.6642   92.6345   12.9492 C.ar    1  UNL1        0.1048
      6 N          64.8672   91.7180   13.8294 N.ar    1  UNL1       -0.2292
      7 C          66.1828   93.6063   10.5962 C.2     1  UNL1        0.2443
      8 N          65.5312   94.8085    9.9798 N.am    1  UNL1       -0.3253
      9 O          67.6315   93.3205   10.3324 O.2     1  UNL1       -0.2703
     10 H          64.5804   94.9961   10.1529 H       1  UNL1        0.1453
     11 H          66.0544   95.4100    9.4021 H       1  UNL1        0.1453
     12 C          63.4147   89.7128   15.5387 C.3     1  UNL1        0.1096
     13 N          62.9945   89.9403   14.1169 N.pl3   1  UNL1       -0.3167
     14 H          62.1955   89.4881   13.7614 H       1  UNL1        0.1482
@<TRIPOS>BOND
     1    12    13    1
     2    13     1    1
     3     1     2   ar
     4     2     3   ar
     5     3     4   ar
     6     4     7    1
     7     7     8   am
     8     7     9    2
     9     4     5   ar
    10     5     6   ar
    11     6     1   ar
    12    13    14    1
    13     8    10    1
    14     8    11    1
@<TRIPOS>MOLECULE
*****
 14 14 0 0 0
SMALL
GASTEIGER

@<TRIPOS>ATOM
      1 C          61.8073   88.9672   11.3725 C.ar    1  UNL1        0.1286
      2 C          62.0727   89.8258   10.1716 C.ar    1  UNL1        0.0342
      3 C          63.0666   90.9462   10.2556 C.ar    1  UNL1        0.0089
      4 C          63.7950   91.2078   11.5405 C.ar    1  UNL1        0.0724
      5 C          63.5296   90.3492   12.7413 C.ar    1  UNL1        0.1048
      6 N          62.5357   89.2288   12.6574 N.ar    1  UNL1       -0.2292
      7 C          64.7889   92.3282   11.6244 C.2     1  UNL1        0.2443
      8 N          65.2249   93.0391   10.3776 N.am    1  UNL1       -0.3253
      9 O          65.3469   92.7376   12.9552 O.2     1  UNL1       -0.2703
     10 H          64.8587   92.7703    9.5042 H       1  UNL1        0.1453
     11 H          65.8772   93.7744   10.4327 H       1  UNL1        0.1453
     12 C          61.2767   86.4552   10.9745 C.3     1  UNL1        0.1096
     13 N          60.8134   87.8468   11.2886 N.pl3   1  UNL1       -0.3167
     14 H          59.8570   88.0249   11.4396 H       1  UNL1        0.1482
@<TRIPOS>BOND
     1    12    13    1
     2    13     1    1
     3     1     2   ar
     4     2     3   ar
     5     3     4   ar
     6     4     7    1
     7     7     8   am
     8     7     9    2
     9     4     5   ar
    10     5     6   ar
    11     6     1   ar
    12    13    14    1
    13     8    10    1
    14     8    11    1
