@<TRIPOS>MOLECULE
*****
 64 71 0 0 0
SMALL
GASTEIGER

@<TRIPOS>ATOM
      1 N          58.7718   93.8315   -4.0713 N.3     1  UNL1       -0.1862
      2 C          59.7240   94.9870   -4.1611 C.3     1  UNL1        0.1775
      3 C          60.2678   95.6098   -2.9095 C.2     1  UNL1        0.2452
      4 O          61.2200   96.7653   -2.9994 O.2     1  UNL1       -0.2732
      5 N          59.8594   95.0770   -1.5682 N.am    1  UNL1       -0.2541
      6 C          60.4032   95.6997   -0.3166 C.3     1  UNL1        0.1577
      7 C          59.9948   95.1670    1.0248 C.2     1  UNL1        0.2445
      8 O          60.5386   95.7897    2.2764 O.2     1  UNL1       -0.2731
      9 N          59.0426   94.0114    1.1146 N.am    1  UNL1       -0.2705
     10 C          58.4988   93.3886   -0.1370 C.3     1  UNL1        0.1359
     11 C          58.9072   93.9215   -1.4784 C.3     1  UNL1        0.1908
     12 N          58.3634   93.2987   -2.7300 N.am    1  UNL1       -0.1863
     13 C          57.4112   92.1431   -2.6401 C.2     1  UNL1        0.3191
     14 O          57.0028   91.6104   -1.2988 O.2     1  UNL1       -0.2512
     15 N          56.8674   91.5204   -3.8917 N.am    1  UNL1       -0.2836
     16 H          57.1354   91.8701   -4.7721 H       1  UNL1        0.1513
     17 C          58.2280   93.2088   -5.3229 C.3     1  UNL1        0.1188
     18 C          56.2146   94.3741   -6.4797 C.2     1  UNL1       -0.0034
     19 C          57.6837   94.0778   -6.4177 C.2     1  UNL1       -0.0071
     20 C          61.3553   96.8552   -0.4064 C.3     1  UNL1        0.0556
     21 C          62.8324   96.6207   -0.2908 C.ar    1  UNL1       -0.0198
     22 C          63.6137   96.1566   -1.4842 C.ar    1  UNL1       -0.0011
     23 C          65.0907   95.9221   -1.3686 C.ar    1  UNL1        0.0363
     24 C          65.7865   96.1516   -0.0597 C.ar    1  UNL1        0.1337
     25 O          67.2635   95.9171    0.0558 O.3     1  UNL1       -0.5055
     26 C          65.0051   96.6157    1.1337 C.ar    1  UNL1        0.0363
     27 C          63.5281   96.8503    1.0182 C.ar    1  UNL1       -0.0011
     28 H          67.7516   95.6272   -0.6897 H       1  UNL1        0.2922
     29 C          58.6342   93.4786    2.4560 C.3     1  UNL1        0.1217
     30 C          59.5582   92.5744    3.2169 C.ar    1  UNL1        0.0135
     31 C          61.0175   92.5316    2.8724 C.ar    1  UNL1       -0.0012
     32 C          61.9414   91.6275    3.6333 C.ar    1  UNL1       -0.0002
     33 C          61.4061   90.7662    4.7385 C.ar    1  UNL1        0.0015
     34 C          59.9468   90.8091    5.0830 C.ar    1  UNL1        0.0170
     35 C          59.1370   90.0804    6.1141 C.ar    1  UNL1        0.0186
     36 C          57.7127   90.5341    5.9905 C.ar    1  UNL1        0.0759
     37 N          57.6421   91.5432    4.8831 N.ar    1  UNL1       -0.3242
     38 C          56.4075   92.2571    4.4181 C.3     1  UNL1        0.1305
     39 C          59.0228   91.7132    4.3222 C.ar    1  UNL1        0.0575
     40 C          59.6599   89.0744    7.0964 C.ar    1  UNL1        0.0016
     41 C          60.4172   89.5323    8.3075 C.ar    1  UNL1        0.0013
     42 C          60.9401   88.5264    9.2897 C.ar    1  UNL1        0.0147
     43 C          60.7057   87.0627    9.0608 C.ar    1  UNL1        0.0505
     44 C          59.9484   86.6047    7.8497 C.ar    1  UNL1        0.0147
     45 C          59.4255   87.6107    6.8675 C.ar    1  UNL1        0.0013
     46 N          61.2285   86.0568   10.0431 N.am    1  UNL1       -0.2804
     47 C          62.4683   85.2738    9.7268 C.2     1  UNL1        0.2495
     48 O          63.1852   85.4967    8.4282 O.2     1  UNL1       -0.2698
     49 H          60.7580   85.9105   10.8954 H       1  UNL1        0.1552
     50 C          62.9911   84.2680   10.7091 C.ar    1  UNL1        0.0539
     51 C          62.5500   84.3196   12.1418 C.ar    1  UNL1        0.0076
     52 C          63.0728   83.3138   13.1242 C.ar    1  UNL1        0.0370
     53 C          64.0366   82.2564   12.6738 C.ar    1  UNL1        0.1387
     54 C          64.4777   82.2047   11.2411 C.ar    1  UNL1        0.0370
     55 C          63.9549   83.2105   10.2587 C.ar    1  UNL1        0.0076
     56 O          64.5594   81.2506   13.6561 O.3     1  UNL1       -0.4714
     57 C          63.6496   80.1880   14.1976 C.3     1  UNL1        0.2525
     58 C          55.9152   90.3649   -3.8019 C.3     1  UNL1        0.1177
     59 C          54.9461   90.1033   -4.9165 C.ar    1  UNL1       -0.0025
     60 C          55.1085   90.8057   -6.2319 C.ar    1  UNL1       -0.0026
     61 C          54.1393   90.5441   -7.3465 C.ar    1  UNL1       -0.0003
     62 C          53.0078   89.5801   -7.1457 C.ar    1  UNL1       -0.0000
     63 C          52.8454   88.8776   -5.8303 C.ar    1  UNL1       -0.0003
     64 C          53.8145   89.1392   -4.7157 C.ar    1  UNL1       -0.0026
@<TRIPOS>BOND
     1    18    19    2
     2    19    17    1
     3    17     1    1
     4     1     2    1
     5     2     3    1
     6     3     4    2
     7     3     5   am
     8     5     6    1
     9     6    20    1
    10    20    21    1
    11    21    22   ar
    12    22    23   ar
    13    23    24   ar
    14    24    25    1
    15    24    26   ar
    16    26    27   ar
    17     6     7    1
    18     7     8    2
    19     7     9   am
    20     9    29    1
    21    29    30    1
    22    30    31   ar
    23    31    32   ar
    24    32    33   ar
    25    33    34   ar
    26    34    35   ar
    27    35    40    1
    28    40    41   ar
    29    41    42   ar
    30    42    43   ar
    31    43    46    1
    32    46    47   am
    33    47    48    2
    34    47    50    1
    35    50    51   ar
    36    51    52   ar
    37    52    53   ar
    38    53    56    1
    39    56    57    1
    40    53    54   ar
    41    54    55   ar
    42    43    44   ar
    43    44    45   ar
    44    35    36   ar
    45    36    37   ar
    46    37    38    1
    47    37    39   ar
    48     9    10    1
    49    11    10    1
    50    11    12    1
    51    12    13   am
    52    13    14    2
    53    13    15   am
    54    15    58    1
    55    58    59    1
    56    59    60   ar
    57    60    61   ar
    58    61    62   ar
    59    62    63   ar
    60    63    64   ar
    61    12     1    1
    62    64    59   ar
    63    11     5    1
    64    27    21   ar
    65    39    30   ar
    66    39    34   ar
    67    45    40   ar
    68    55    50   ar
    69    25    28    1
    70    46    49    1
    71    15    16    1
@<TRIPOS>MOLECULE
*****
 64 71 0 0 0
SMALL
GASTEIGER

@<TRIPOS>ATOM
      1 N          62.3258   94.6592   -3.4811 N.3     1  UNL1       -0.1862
      2 C          61.2196   94.2832   -4.4219 C.3     1  UNL1        0.1775
      3 C          59.8996   93.8199   -3.8805 C.2     1  UNL1        0.2452
      4 O          58.7934   93.4439   -4.8213 O.2     1  UNL1       -0.2732
      5 N          59.6859   93.7324   -2.3984 N.am    1  UNL1       -0.2541
      6 C          58.3660   93.2690   -1.8570 C.3     1  UNL1        0.1577
      7 C          58.1522   93.1816   -0.3750 C.2     1  UNL1        0.2445
      8 O          56.8323   92.7182    0.1664 O.2     1  UNL1       -0.2731
      9 N          59.2584   93.5575    0.5658 N.am    1  UNL1       -0.2705
     10 C          60.5784   94.0209    0.0245 C.3     1  UNL1        0.1359
     11 C          60.7921   94.1084   -1.4577 C.3     1  UNL1        0.1908
     12 N          62.1120   94.5717   -1.9991 N.am    1  UNL1       -0.1863
     13 C          63.2182   94.9477   -1.0583 C.2     1  UNL1        0.3191
     14 O          63.0045   94.8602    0.4238 O.2     1  UNL1       -0.2512
     15 N          64.5381   95.4110   -1.5996 N.am    1  UNL1       -0.2836
     16 H          64.6784   95.4684   -2.5724 H       1  UNL1        0.1513
     17 C          63.6457   95.1225   -4.0225 C.3     1  UNL1        0.1188
     18 C          64.4092   94.4919   -6.4244 C.2     1  UNL1       -0.0034
     19 C          63.7804   95.4689   -5.4757 C.2     1  UNL1       -0.0071
     20 C          57.2598   92.8931   -2.7978 C.3     1  UNL1        0.0556
     21 C          56.1274   93.8458   -3.0428 C.ar    1  UNL1       -0.0198
     22 C          55.8866   94.3858   -4.4213 C.ar    1  UNL1       -0.0011
     23 C          54.7542   95.3385   -4.6663 C.ar    1  UNL1        0.0363
     24 C          53.8626   95.7512   -3.5329 C.ar    1  UNL1        0.1337
     25 O          52.7302   96.7039   -3.7779 O.3     1  UNL1       -0.5055
     26 C          54.1034   95.2112   -2.1543 C.ar    1  UNL1        0.0363
     27 C          55.2358   94.2585   -1.9092 C.ar    1  UNL1       -0.0011
     28 H          52.5798   97.0412   -4.6390 H       1  UNL1        0.2922
     29 C          59.0447   93.4701    2.0479 C.3     1  UNL1        0.1217
     30 C          59.9084   92.5676    2.8783 C.ar    1  UNL1        0.0135
     31 C          61.3724   92.4439    2.5759 C.ar    1  UNL1       -0.0012
     32 C          62.2362   91.5415    3.4063 C.ar    1  UNL1       -0.0002
     33 C          61.6359   90.7627    4.5390 C.ar    1  UNL1        0.0015
     34 C          60.1719   90.8863    4.8414 C.ar    1  UNL1        0.0170
     35 C          59.3054   90.2477    5.8860 C.ar    1  UNL1        0.0186
     36 C          57.9061   90.7555    5.7012 C.ar    1  UNL1        0.0759
     37 N          57.9078   91.7079    4.5425 N.ar    1  UNL1       -0.3242
     38 C          56.7181   92.4493    4.0088 C.3     1  UNL1        0.1305
     39 C          59.3082   91.7888    4.0111 C.ar    1  UNL1        0.0575
     40 C          59.7586   89.2725    6.9318 C.ar    1  UNL1        0.0016
     41 C          59.4629   87.8105    6.7724 C.ar    1  UNL1        0.0013
     42 C          59.9161   86.8354    7.8182 C.ar    1  UNL1        0.0147
     43 C          60.6650   87.3222    9.0233 C.ar    1  UNL1        0.0505
     44 C          60.9606   88.7841    9.1827 C.ar    1  UNL1        0.0147
     45 C          60.5074   89.7592    8.1369 C.ar    1  UNL1        0.0013
     46 N          61.1182   86.3470   10.0691 N.am    1  UNL1       -0.2804
     47 C          62.3545   85.5276    9.8451 C.2     1  UNL1        0.2495
     48 O          63.1377   85.6836    8.5754 O.2     1  UNL1       -0.2698
     49 H          60.6041   86.2446   10.9024 H       1  UNL1        0.1552
     50 C          62.8076   84.5525   10.8909 C.ar    1  UNL1        0.0539
     51 C          62.2941   84.6668   12.2956 C.ar    1  UNL1        0.0076
     52 C          62.7472   83.6917   13.3415 C.ar    1  UNL1        0.0370
     53 C          63.7137   82.6022   12.9826 C.ar    1  UNL1        0.1387
     54 C          64.2273   82.4879   11.5779 C.ar    1  UNL1        0.0370
     55 C          63.7742   83.4630   10.5321 C.ar    1  UNL1        0.0076
     56 O          64.1668   81.6270   14.0284 O.3     1  UNL1       -0.4714
     57 C          63.3849   80.3701   14.2709 C.3     1  UNL1        0.2525
     58 C          65.6443   95.7870   -0.6589 C.3     1  UNL1        0.1177
     59 C          65.4526   95.6392    0.8214 C.ar    1  UNL1       -0.0025
     60 C          65.4132   96.8560    1.6977 C.ar    1  UNL1       -0.0026
     61 C          65.2215   96.7082    3.1781 C.ar    1  UNL1       -0.0003
     62 C          65.0692   95.3437    3.7821 C.ar    1  UNL1       -0.0000
     63 C          65.1086   94.1269    2.9058 C.ar    1  UNL1       -0.0003
     64 C          65.3003   94.2746    1.4255 C.ar    1  UNL1       -0.0026
@<TRIPOS>BOND
     1    18    19    2
     2    19    17    1
     3    17     1    1
     4     1     2    1
     5     2     3    1
     6     3     4    2
     7     3     5   am
     8     5     6    1
     9     6    20    1
    10    20    21    1
    11    21    22   ar
    12    22    23   ar
    13    23    24   ar
    14    24    25    1
    15    24    26   ar
    16    26    27   ar
    17     6     7    1
    18     7     8    2
    19     7     9   am
    20     9    29    1
    21    29    30    1
    22    30    31   ar
    23    31    32   ar
    24    32    33   ar
    25    33    34   ar
    26    34    35   ar
    27    35    40    1
    28    40    41   ar
    29    41    42   ar
    30    42    43   ar
    31    43    46    1
    32    46    47   am
    33    47    48    2
    34    47    50    1
    35    50    51   ar
    36    51    52   ar
    37    52    53   ar
    38    53    56    1
    39    56    57    1
    40    53    54   ar
    41    54    55   ar
    42    43    44   ar
    43    44    45   ar
    44    35    36   ar
    45    36    37   ar
    46    37    38    1
    47    37    39   ar
    48     9    10    1
    49    11    10    1
    50    11    12    1
    51    12    13   am
    52    13    14    2
    53    13    15   am
    54    15    58    1
    55    58    59    1
    56    59    60   ar
    57    60    61   ar
    58    61    62   ar
    59    62    63   ar
    60    63    64   ar
    61    12     1    1
    62    64    59   ar
    63    11     5    1
    64    27    21   ar
    65    39    30   ar
    66    39    34   ar
    67    45    40   ar
    68    55    50   ar
    69    25    28    1
    70    46    49    1
    71    15    16    1
