@<TRIPOS>MOLECULE
*****
 34 38 0 0 0
SMALL
GASTEIGER

@<TRIPOS>ATOM
      1 C          64.5808   90.5477   13.7313 C.3     1  UNL1        0.0721
      2 C          63.4929   86.1814   13.6891 C.3     1  UNL1        0.0841
      3 C          64.2501   86.7545   14.8501 C.3     1  UNL1        0.0376
      4 C          64.6128   88.2099   14.8642 C.3     1  UNL1        0.0738
      5 N          64.2181   89.0923   13.7172 N.3     1  UNL1       -0.2726
      6 C          63.4608   88.5193   12.5562 C.3     1  UNL1        0.0738
      7 C          63.0982   87.0638   12.5421 C.3     1  UNL1        0.0376
      8 O          62.1858   84.5062   16.1660 O.2     1  UNL1       -0.2501
      9 C          62.5294   83.9559   14.8135 C.2     1  UNL1        0.3309
     10 N          62.3326   82.5391   14.3620 N.am    1  UNL1       -0.1647
     11 C          62.8118   82.4335   12.9445 C.2     1  UNL1        0.0706
     12 C          62.8629   81.2812   11.9856 C.3     1  UNL1        0.0705
     13 C          63.4070   81.4805   10.6021 C.2     1  UNL1       -0.0199
     14 C          63.8999   82.8320   10.1775 C.2     1  UNL1       -0.0029
     15 C          63.8488   83.9843   11.1364 C.2     1  UNL1        0.0156
     16 C          63.3047   83.7850   12.5199 C.2     1  UNL1        0.0668
     17 N          63.1302   84.7259   13.6750 N.am    1  UNL1       -0.2423
     18 C          63.9906   91.4776   12.7130 C.3     1  UNL1        0.0180
     19 C          64.8107   91.9207   11.5377 C.3     1  UNL1        0.0102
     20 C          65.9783   92.8399   11.7419 C.3     1  UNL1        0.0446
     21 C          66.7876   92.7560   13.0021 C.ar    1  UNL1       -0.0183
     22 C          67.9276   91.7859   13.0981 C.ar    1  UNL1       -0.0017
     23 C          68.7369   91.7019   14.3583 C.ar    1  UNL1        0.0293
     24 C          68.4060   92.5881   15.5224 C.ar    1  UNL1        0.1401
     25 F          69.2153   92.5042   16.7826 F       1  UNL1       -0.2042
     26 C          67.2660   93.5582   15.4264 C.ar    1  UNL1        0.0293
     27 C          66.4568   93.6421   14.1662 C.ar    1  UNL1       -0.0017
     28 C          66.3368   93.8432   10.6858 C.ar    1  UNL1       -0.0183
     29 C          65.7748   95.2325   10.7496 C.ar    1  UNL1       -0.0017
     30 C          66.1332   96.2356    9.6935 C.ar    1  UNL1        0.0293
     31 C          67.0536   95.8495    8.5738 C.ar    1  UNL1        0.1401
     32 F          67.4119   96.8527    7.5178 F       1  UNL1       -0.2042
     33 C          67.6155   94.4602    8.5100 C.ar    1  UNL1        0.0293
     34 C          67.2571   93.4571    9.5660 C.ar    1  UNL1       -0.0017
@<TRIPOS>BOND
     1     8     9    2
     2     9    10    1
     3    10    11    2
     4    11    12    1
     5    12    13    1
     6    13    14    2
     7    14    15    1
     8    15    16    2
     9    16    17    1
    10    17     2    1
    11     2     3    1
    12     3     4    1
    13     4     5    1
    14     5     1    1
    15     1    18    1
    16    18    19    1
    17    19    20    1
    18    20    21    1
    19    21    22   ar
    20    22    23   ar
    21    23    24   ar
    22    24    25    1
    23    24    26   ar
    24    26    27   ar
    25    20    28    1
    26    28    29   ar
    27    29    30   ar
    28    30    31   ar
    29    31    32    1
    30    31    33   ar
    31    33    34   ar
    32     5     6    1
    33     6     7    1
    34    17     9   am
    35     7     2    1
    36    16    11    1
    37    27    21   ar
    38    34    28   ar
@<TRIPOS>MOLECULE
*****
 34 38 0 0 0
SMALL
GASTEIGER

@<TRIPOS>ATOM
      1 C          64.5740   90.5309   13.8067 C.3     1  UNL1        0.0721
      2 C          63.5020   86.1610   13.7280 C.3     1  UNL1        0.0841
      3 C          64.2541   86.7279   14.8954 C.3     1  UNL1        0.0376
      4 C          64.6114   88.1845   14.9217 C.3     1  UNL1        0.0738
      5 N          64.2166   89.0743   13.7805 N.3     1  UNL1       -0.2726
      6 C          63.4645   88.5075   12.6130 C.3     1  UNL1        0.0738
      7 C          63.1072   87.0509   12.5867 C.3     1  UNL1        0.0376
      8 O          62.2026   84.4600   16.1913 O.2     1  UNL1       -0.2501
      9 C          62.5474   83.9226   14.8340 C.2     1  UNL1        0.3309
     10 N          62.3555   82.5090   14.3706 N.am    1  UNL1       -0.1647
     11 C          62.8342   82.4171   12.9520 C.2     1  UNL1        0.0706
     12 C          62.8890   81.2732   11.9833 C.3     1  UNL1        0.0705
     13 C          63.4315   81.4863   10.6012 C.2     1  UNL1       -0.0199
     14 C          63.9193   82.8432   10.1878 C.2     1  UNL1       -0.0029
     15 C          63.8645   83.9871   11.1565 C.2     1  UNL1        0.0156
     16 C          63.3220   83.7740   12.5386 C.2     1  UNL1        0.0668
     17 N          63.1447   84.7045   13.7018 N.am    1  UNL1       -0.2423
     18 C          64.0130   91.4595   12.7710 C.3     1  UNL1        0.0180
     19 C          64.8533   91.8705   11.5983 C.3     1  UNL1        0.0102
     20 C          66.0120   92.8023   11.7959 C.3     1  UNL1        0.0446
     21 C          66.3487   93.8146   10.7414 C.ar    1  UNL1       -0.0183
     22 C          67.2988   93.4589    9.6365 C.ar    1  UNL1       -0.0017
     23 C          67.6355   94.4712    8.5820 C.ar    1  UNL1        0.0293
     24 C          67.0221   95.8391    8.6325 C.ar    1  UNL1        0.1401
     25 F          67.3588   96.8514    7.5781 F       1  UNL1       -0.2042
     26 C          66.0721   96.1947    9.7375 C.ar    1  UNL1        0.0293
     27 C          65.7354   95.1825   10.7920 C.ar    1  UNL1       -0.0017
     28 C          66.8341   92.7218   13.0481 C.ar    1  UNL1       -0.0183
     29 C          66.4946   93.5875   14.2251 C.ar    1  UNL1       -0.0017
     30 C          67.3167   93.5070   15.4771 C.ar    1  UNL1        0.0293
     31 C          68.4782   92.5609   15.5522 C.ar    1  UNL1        0.1401
     32 F          69.3002   92.4804   16.8043 F       1  UNL1       -0.2042
     33 C          68.8177   91.6951   14.3752 C.ar    1  UNL1        0.0293
     34 C          67.9956   91.7757   13.1232 C.ar    1  UNL1       -0.0017
@<TRIPOS>BOND
     1     8     9    2
     2     9    10    1
     3    10    11    2
     4    11    12    1
     5    12    13    1
     6    13    14    2
     7    14    15    1
     8    15    16    2
     9    16    17    1
    10    17     2    1
    11     2     3    1
    12     3     4    1
    13     4     5    1
    14     5     1    1
    15     1    18    1
    16    18    19    1
    17    19    20    1
    18    20    21    1
    19    21    22   ar
    20    22    23   ar
    21    23    24   ar
    22    24    25    1
    23    24    26   ar
    24    26    27   ar
    25    20    28    1
    26    28    29   ar
    27    29    30   ar
    28    30    31   ar
    29    31    32    1
    30    31    33   ar
    31    33    34   ar
    32     5     6    1
    33     6     7    1
    34    17     9   am
    35     7     2    1
    36    16    11    1
    37    27    21   ar
    38    34    28   ar
@<TRIPOS>MOLECULE
*****
 34 38 0 0 0
SMALL
GASTEIGER

@<TRIPOS>ATOM
      1 C          62.2604   87.6961   10.9891 C.3     1  UNL1        0.0721
      2 C          64.3541   90.3843   13.9285 C.3     1  UNL1        0.0841
      3 C          64.2576   88.9116   14.1959 C.3     1  UNL1        0.0376
      4 C          63.5597   88.0155   13.2162 C.3     1  UNL1        0.0738
      5 N          62.9583   88.5922   11.9689 N.3     1  UNL1       -0.2726
      6 C          63.0548   90.0649   11.7014 C.3     1  UNL1        0.0738
      7 C          63.7527   90.9610   12.6812 C.3     1  UNL1        0.0376
      8 O          63.0811   91.5660   16.6912 O.2     1  UNL1       -0.2501
      9 C          64.4669   91.8236   16.1782 C.2     1  UNL1        0.3309
     10 N          65.5108   92.6695   16.8449 N.am    1  UNL1       -0.1647
     11 C          66.7412   92.6491   15.9871 C.2     1  UNL1        0.0706
     12 C          68.0831   93.3014   16.1412 C.3     1  UNL1        0.0705
     13 C          69.1414   93.0952   15.0985 C.2     1  UNL1       -0.0199
     14 C          68.8579   92.2366   13.9016 C.2     1  UNL1       -0.0029
     15 C          67.5160   91.5844   13.7475 C.2     1  UNL1        0.0156
     16 C          66.4577   91.7906   14.7902 C.2     1  UNL1        0.0668
     17 N          65.0520   91.2804   14.9083 N.am    1  UNL1       -0.2423
     18 C          61.7909   86.3375   11.4178 C.3     1  UNL1        0.0180
     19 C          62.6481   85.1330   11.1637 C.3     1  UNL1        0.0102
     20 C          62.8565   84.1184   12.2486 C.3     1  UNL1        0.0446
     21 C          63.0711   84.5670   13.6638 C.ar    1  UNL1       -0.0183
     22 C          61.9323   84.5409   14.6397 C.ar    1  UNL1       -0.0017
     23 C          62.1470   84.9895   16.0549 C.ar    1  UNL1        0.0293
     24 C          63.5004   85.4642   16.4941 C.ar    1  UNL1        0.1401
     25 F          63.7151   85.9128   17.9092 F       1  UNL1       -0.2042
     26 C          64.6391   85.4903   15.5181 C.ar    1  UNL1        0.0293
     27 C          64.4245   85.0417   14.1029 C.ar    1  UNL1       -0.0017
     28 C          62.8503   82.6552   11.9184 C.ar    1  UNL1       -0.0183
     29 C          63.2565   82.1933   10.5503 C.ar    1  UNL1       -0.0017
     30 C          63.2502   80.7302   10.2202 C.ar    1  UNL1        0.0293
     31 C          62.8378   79.7288   11.2581 C.ar    1  UNL1        0.1401
     32 F          62.8316   78.2656   10.9278 F       1  UNL1       -0.2042
     33 C          62.4316   80.1907   12.6262 C.ar    1  UNL1        0.0293
     34 C          62.4379   81.6538   12.9563 C.ar    1  UNL1       -0.0017
@<TRIPOS>BOND
     1     8     9    2
     2     9    10    1
     3    10    11    2
     4    11    12    1
     5    12    13    1
     6    13    14    2
     7    14    15    1
     8    15    16    2
     9    16    17    1
    10    17     2    1
    11     2     3    1
    12     3     4    1
    13     4     5    1
    14     5     1    1
    15     1    18    1
    16    18    19    1
    17    19    20    1
    18    20    21    1
    19    21    22   ar
    20    22    23   ar
    21    23    24   ar
    22    24    25    1
    23    24    26   ar
    24    26    27   ar
    25    20    28    1
    26    28    29   ar
    27    29    30   ar
    28    30    31   ar
    29    31    32    1
    30    31    33   ar
    31    33    34   ar
    32     5     6    1
    33     6     7    1
    34    17     9   am
    35     7     2    1
    36    16    11    1
    37    27    21   ar
    38    34    28   ar
@<TRIPOS>MOLECULE
*****
 34 38 0 0 0
SMALL
GASTEIGER

@<TRIPOS>ATOM
      1 C          62.3354   89.2046   10.1424 C.3     1  UNL1        0.0721
      2 C          64.5848   91.0616   13.5692 C.3     1  UNL1        0.0841
      3 C          64.4336   91.8098   12.2780 C.3     1  UNL1        0.0376
      4 C          63.6838   91.1908   11.1357 C.3     1  UNL1        0.0738
      5 N          63.0852   89.8236   11.2847 N.3     1  UNL1       -0.2726
      6 C          63.2363   89.0753   12.5759 C.3     1  UNL1        0.0738
      7 C          63.9860   89.6943   13.7181 C.3     1  UNL1        0.0376
      8 O          63.3378   91.8476   16.4807 O.2     1  UNL1       -0.2501
      9 C          64.7614   92.0418   16.0497 C.2     1  UNL1        0.3309
     10 N          65.8618   92.6315   16.8812 N.am    1  UNL1       -0.1647
     11 C          67.1150   92.6346   16.0569 C.2     1  UNL1        0.0706
     12 C          68.5107   93.0966   16.3542 C.3     1  UNL1        0.0705
     13 C          69.5806   92.9710   15.3104 C.2     1  UNL1       -0.0199
     14 C          69.2547   92.3833   13.9694 C.2     1  UNL1       -0.0029
     15 C          67.8590   91.9212   13.6721 C.2     1  UNL1        0.0156
     16 C          66.7891   92.0469   14.7159 C.2     1  UNL1        0.0668
     17 N          65.3345   91.6806   14.7114 N.am    1  UNL1       -0.2423
     18 C          60.9719   88.6218   10.3684 C.3     1  UNL1        0.0180
     19 C          60.8226   87.3325   11.1204 C.3     1  UNL1        0.0102
     20 C          61.6518   86.1419   10.7397 C.3     1  UNL1        0.0446
     21 C          61.7243   85.7058    9.3064 C.ar    1  UNL1       -0.0183
     22 C          60.5182   85.8288    8.4231 C.ar    1  UNL1       -0.0017
     23 C          60.5907   85.3927    6.9897 C.ar    1  UNL1        0.0293
     24 C          61.8692   84.8335    6.4397 C.ar    1  UNL1        0.1401
     25 F          61.9418   84.3973    5.0063 F       1  UNL1       -0.2042
     26 C          63.0753   84.7104    7.3230 C.ar    1  UNL1        0.0293
     27 C          63.0028   85.1466    8.7564 C.ar    1  UNL1       -0.0017
     28 C          62.4086   85.3874   11.7925 C.ar    1  UNL1       -0.0183
     29 C          63.1573   86.1329   12.8572 C.ar    1  UNL1       -0.0017
     30 C          63.9140   85.3785   13.9099 C.ar    1  UNL1        0.0293
     31 C          63.9221   83.8785   13.8978 C.ar    1  UNL1        0.1401
     32 F          64.6788   83.1241   14.9505 F       1  UNL1       -0.2042
     33 C          63.1734   83.1330   12.8330 C.ar    1  UNL1        0.0293
     34 C          62.4167   83.8875   11.7804 C.ar    1  UNL1       -0.0017
@<TRIPOS>BOND
     1     8     9    2
     2     9    10    1
     3    10    11    2
     4    11    12    1
     5    12    13    1
     6    13    14    2
     7    14    15    1
     8    15    16    2
     9    16    17    1
    10    17     2    1
    11     2     3    1
    12     3     4    1
    13     4     5    1
    14     5     1    1
    15     1    18    1
    16    18    19    1
    17    19    20    1
    18    20    21    1
    19    21    22   ar
    20    22    23   ar
    21    23    24   ar
    22    24    25    1
    23    24    26   ar
    24    26    27   ar
    25    20    28    1
    26    28    29   ar
    27    29    30   ar
    28    30    31   ar
    29    31    32    1
    30    31    33   ar
    31    33    34   ar
    32     5     6    1
    33     6     7    1
    34    17     9   am
    35     7     2    1
    36    16    11    1
    37    27    21   ar
    38    34    28   ar
@<TRIPOS>MOLECULE
*****
 34 38 0 0 0
SMALL
GASTEIGER

@<TRIPOS>ATOM
      1 C          62.3336   89.2258   10.1220 C.3     1  UNL1        0.0721
      2 C          64.5859   91.0679   13.5548 C.3     1  UNL1        0.0841
      3 C          64.4479   91.8148   12.2614 C.3     1  UNL1        0.0376
      4 C          63.6971   91.2008   11.1171 C.3     1  UNL1        0.0738
      5 N          63.0843   89.8398   11.2663 N.3     1  UNL1       -0.2726
      6 C          63.2222   89.0929   12.5597 C.3     1  UNL1        0.0738
      7 C          63.9730   89.7069   13.7040 C.3     1  UNL1        0.0376
      8 O          63.3371   91.8588   16.4642 O.2     1  UNL1       -0.2501
      9 C          64.7626   92.0454   16.0364 C.2     1  UNL1        0.3309
     10 N          65.8644   92.6284   16.8707 N.am    1  UNL1       -0.1647
     11 C          67.1194   92.6252   16.0491 C.2     1  UNL1        0.0706
     12 C          68.5170   93.0793   16.3497 C.3     1  UNL1        0.0705
     13 C          69.5884   92.9485   15.3081 C.2     1  UNL1       -0.0199
     14 C          69.2622   92.3635   13.9659 C.2     1  UNL1       -0.0029
     15 C          67.8646   91.9094   13.6653 C.2     1  UNL1        0.0156
     16 C          66.7932   92.0402   14.7069 C.2     1  UNL1        0.0668
     17 N          65.3366   91.6819   14.6991 N.am    1  UNL1       -0.2423
     18 C          60.9806   88.6203   10.3514 C.3     1  UNL1        0.0180
     19 C          60.8513   87.3494   11.1377 C.3     1  UNL1        0.0102
     20 C          61.6635   86.1468   10.7581 C.3     1  UNL1        0.0446
     21 C          62.4082   85.3817   11.8117 C.ar    1  UNL1       -0.0183
     22 C          63.1526   86.1164   12.8868 C.ar    1  UNL1       -0.0017
     23 C          63.8973   85.3513   13.9404 C.ar    1  UNL1        0.0293
     24 C          63.8975   83.8515   13.9188 C.ar    1  UNL1        0.1401
     25 F          64.6422   83.0863   14.9724 F       1  UNL1       -0.2042
     26 C          63.1531   83.1168   12.8437 C.ar    1  UNL1        0.0293
     27 C          62.4084   83.8819   11.7901 C.ar    1  UNL1       -0.0017
     28 C          61.7309   85.7092    9.3249 C.ar    1  UNL1       -0.0183
     29 C          60.5236   85.8372    8.4440 C.ar    1  UNL1       -0.0017
     30 C          60.5911   85.3997    7.0109 C.ar    1  UNL1        0.0293
     31 C          61.8659   84.8342    6.4585 C.ar    1  UNL1        0.1401
     32 F          61.9334   84.3966    5.0254 F       1  UNL1       -0.2042
     33 C          63.0733   84.7062    7.3394 C.ar    1  UNL1        0.0293
     34 C          63.0057   85.1437    8.7726 C.ar    1  UNL1       -0.0017
@<TRIPOS>BOND
     1     8     9    2
     2     9    10    1
     3    10    11    2
     4    11    12    1
     5    12    13    1
     6    13    14    2
     7    14    15    1
     8    15    16    2
     9    16    17    1
    10    17     2    1
    11     2     3    1
    12     3     4    1
    13     4     5    1
    14     5     1    1
    15     1    18    1
    16    18    19    1
    17    19    20    1
    18    20    21    1
    19    21    22   ar
    20    22    23   ar
    21    23    24   ar
    22    24    25    1
    23    24    26   ar
    24    26    27   ar
    25    20    28    1
    26    28    29   ar
    27    29    30   ar
    28    30    31   ar
    29    31    32    1
    30    31    33   ar
    31    33    34   ar
    32     5     6    1
    33     6     7    1
    34    17     9   am
    35     7     2    1
    36    16    11    1
    37    27    21   ar
    38    34    28   ar
@<TRIPOS>MOLECULE
*****
 34 38 0 0 0
SMALL
GASTEIGER

@<TRIPOS>ATOM
      1 C          62.8379   90.5368   12.7052 C.3     1  UNL1        0.0721
      2 C          62.9553   86.1256   11.8237 C.3     1  UNL1        0.0841
      3 C          63.6902   86.6729   13.0112 C.3     1  UNL1        0.0376
      4 C          63.6510   88.1433   13.3050 C.3     1  UNL1        0.0738
      5 N          62.8770   89.0664   12.4114 N.3     1  UNL1       -0.2726
      6 C          62.1421   88.5191   11.2238 C.3     1  UNL1        0.0738
      7 C          62.1812   87.0487   10.9299 C.3     1  UNL1        0.0376
      8 O          63.5558   84.7654    8.9187 O.2     1  UNL1       -0.2501
      9 C          63.2704   84.0299   10.1945 C.2     1  UNL1        0.3309
     10 N          63.2110   82.5402   10.3591 N.am    1  UNL1       -0.1647
     11 C          62.8982   82.2447   11.7961 C.2     1  UNL1        0.0706
     12 C          62.7180   80.9542   12.5392 C.3     1  UNL1        0.0705
     13 C          62.4040   80.9709   14.0058 C.2     1  UNL1       -0.0199
     14 C          62.2702   82.2781   14.7293 C.2     1  UNL1       -0.0029
     15 C          62.4504   83.5685   13.9862 C.2     1  UNL1        0.0156
     16 C          62.7644   83.5518   12.5196 C.2     1  UNL1        0.0668
     17 N          62.9944   84.6551   11.5298 N.am    1  UNL1       -0.2423
     18 C          64.1169   91.3041   12.8647 C.3     1  UNL1        0.0180
     19 C          64.7354   91.9855   11.6801 C.3     1  UNL1        0.0102
     20 C          65.9380   92.8631   11.8631 C.3     1  UNL1        0.0446
     21 C          66.3063   93.8610   10.8055 C.ar    1  UNL1       -0.0183
     22 C          65.7236   95.2426   10.8425 C.ar    1  UNL1       -0.0017
     23 C          66.0918   96.2405    9.7849 C.ar    1  UNL1        0.0293
     24 C          67.0428   95.8567    8.6903 C.ar    1  UNL1        0.1401
     25 F          67.4111   96.8545    7.6325 F       1  UNL1       -0.2042
     26 C          67.6255   94.4750    8.6532 C.ar    1  UNL1        0.0293
     27 C          67.2572   93.4771    9.7108 C.ar    1  UNL1       -0.0017
     28 C          66.7724   92.7427   13.1039 C.ar    1  UNL1       -0.0183
     29 C          66.4218   93.5419   14.3239 C.ar    1  UNL1       -0.0017
     30 C          67.2563   93.4215   15.5645 C.ar    1  UNL1        0.0293
     31 C          68.4412   92.5021   15.5852 C.ar    1  UNL1        0.1401
     32 F          69.2756   92.3818   16.8259 F       1  UNL1       -0.2042
     33 C          68.7919   91.7029   14.3651 C.ar    1  UNL1        0.0293
     34 C          67.9574   91.8233   13.1245 C.ar    1  UNL1       -0.0017
@<TRIPOS>BOND
     1     8     9    2
     2     9    10    1
     3    10    11    2
     4    11    12    1
     5    12    13    1
     6    13    14    2
     7    14    15    1
     8    15    16    2
     9    16    17    1
    10    17     2    1
    11     2     3    1
    12     3     4    1
    13     4     5    1
    14     5     1    1
    15     1    18    1
    16    18    19    1
    17    19    20    1
    18    20    21    1
    19    21    22   ar
    20    22    23   ar
    21    23    24   ar
    22    24    25    1
    23    24    26   ar
    24    26    27   ar
    25    20    28    1
    26    28    29   ar
    27    29    30   ar
    28    30    31   ar
    29    31    32    1
    30    31    33   ar
    31    33    34   ar
    32     5     6    1
    33     6     7    1
    34    17     9   am
    35     7     2    1
    36    16    11    1
    37    27    21   ar
    38    34    28   ar
@<TRIPOS>MOLECULE
*****
 34 38 0 0 0
SMALL
GASTEIGER

@<TRIPOS>ATOM
      1 C          60.6456   90.2495   10.4730 C.3     1  UNL1        0.0721
      2 C          64.7108   91.4860   11.9546 C.3     1  UNL1        0.0841
      3 C          64.2734   91.8556   10.5683 C.3     1  UNL1        0.0376
      4 C          62.9184   91.4435   10.0744 C.3     1  UNL1        0.0738
      5 N          62.0006   90.6617   10.9669 N.3     1  UNL1       -0.2726
      6 C          62.4380   90.2920   12.3532 C.3     1  UNL1        0.0738
      7 C          63.7931   90.7042   12.8471 C.3     1  UNL1        0.0376
      8 O          67.3613   91.9618   10.1112 O.2     1  UNL1       -0.2501
      9 C          67.2842   92.1169   11.6011 C.2     1  UNL1        0.3309
     10 N          68.4118   92.5178   12.5054 N.am    1  UNL1       -0.1647
     11 C          67.8904   92.5469   13.9116 C.2     1  UNL1        0.0706
     12 C          68.5485   92.8727   15.2195 C.3     1  UNL1        0.0705
     13 C          67.7568   92.8154   16.4923 C.2     1  UNL1       -0.0199
     14 C          66.3069   92.4325   16.4570 C.2     1  UNL1       -0.0029
     15 C          65.6488   92.1067   15.1491 C.2     1  UNL1        0.0156
     16 C          66.4406   92.1639   13.8764 C.2     1  UNL1        0.0668
     17 N          66.0659   91.8982   12.4485 N.am    1  UNL1       -0.2423
     18 C          60.4318   88.8649    9.9371 C.3     1  UNL1        0.0180
     19 C          60.4942   87.6851   10.8614 C.3     1  UNL1        0.0102
     20 C          61.4620   86.5713   10.5914 C.3     1  UNL1        0.0446
     21 C          61.5566   85.9765    9.2177 C.ar    1  UNL1       -0.0183
     22 C          60.3436   85.9269    8.3367 C.ar    1  UNL1       -0.0017
     23 C          60.4382   85.3321    6.9629 C.ar    1  UNL1        0.0293
     24 C          61.7458   84.7868    6.4702 C.ar    1  UNL1        0.1401
     25 F          61.8405   84.1920    5.0965 F       1  UNL1       -0.2042
     26 C          62.9588   84.8364    7.3512 C.ar    1  UNL1        0.0293
     27 C          62.8642   85.4312    8.7250 C.ar    1  UNL1       -0.0017
     28 C          62.3351   86.0523   11.6953 C.ar    1  UNL1       -0.0183
     29 C          63.1139   87.0093   12.5484 C.ar    1  UNL1       -0.0017
     30 C          63.9870   86.4902   13.6521 C.ar    1  UNL1        0.0293
     31 C          64.0814   85.0143   13.9027 C.ar    1  UNL1        0.1401
     32 F          64.9545   84.4954   15.0065 F       1  UNL1       -0.2042
     33 C          63.3026   84.0574   13.0496 C.ar    1  UNL1        0.0293
     34 C          62.4295   84.5764   11.9459 C.ar    1  UNL1       -0.0017
@<TRIPOS>BOND
     1     8     9    2
     2     9    10    1
     3    10    11    2
     4    11    12    1
     5    12    13    1
     6    13    14    2
     7    14    15    1
     8    15    16    2
     9    16    17    1
    10    17     2    1
    11     2     3    1
    12     3     4    1
    13     4     5    1
    14     5     1    1
    15     1    18    1
    16    18    19    1
    17    19    20    1
    18    20    21    1
    19    21    22   ar
    20    22    23   ar
    21    23    24   ar
    22    24    25    1
    23    24    26   ar
    24    26    27   ar
    25    20    28    1
    26    28    29   ar
    27    29    30   ar
    28    30    31   ar
    29    31    32    1
    30    31    33   ar
    31    33    34   ar
    32     5     6    1
    33     6     7    1
    34    17     9   am
    35     7     2    1
    36    16    11    1
    37    27    21   ar
    38    34    28   ar
@<TRIPOS>MOLECULE
*****
 34 38 0 0 0
SMALL
GASTEIGER

@<TRIPOS>ATOM
      1 C          62.0713   87.8206   10.9602 C.3     1  UNL1        0.0721
      2 C          64.2673   90.4243   13.9011 C.3     1  UNL1        0.0841
      3 C          64.2135   88.9397   14.1080 C.3     1  UNL1        0.0376
      4 C          63.4816   88.0718   13.1277 C.3     1  UNL1        0.0738
      5 N          62.8033   88.6885   11.9404 N.3     1  UNL1       -0.2726
      6 C          62.8570   90.1732   11.7335 C.3     1  UNL1        0.0738
      7 C          63.5890   91.0411   12.7137 C.3     1  UNL1        0.0376
      8 O          63.0552   91.6145   16.6874 O.2     1  UNL1       -0.2501
      9 C          64.4421   91.8393   16.1621 C.2     1  UNL1        0.3309
     10 N          65.5154   92.6507   16.8252 N.am    1  UNL1       -0.1647
     11 C          66.7359   92.6050   15.9543 C.2     1  UNL1        0.0706
     12 C          68.0964   93.2195   16.1000 C.3     1  UNL1        0.0705
     13 C          69.1380   92.9944   15.0443 C.2     1  UNL1       -0.0199
     14 C          68.8189   92.1548   13.8429 C.2     1  UNL1       -0.0029
     15 C          67.4584   91.5404   13.6972 C.2     1  UNL1        0.0156
     16 C          66.4169   91.7655   14.7529 C.2     1  UNL1        0.0668
     17 N          64.9992   91.2923   14.8813 N.am    1  UNL1       -0.2423
     18 C          61.8969   86.3570   11.2386 C.3     1  UNL1        0.0180
     19 C          63.0946   85.4995   11.5222 C.3     1  UNL1        0.0102
     20 C          63.0276   84.4467   12.5884 C.3     1  UNL1        0.0446
     21 C          62.9617   82.9972   12.2081 C.ar    1  UNL1       -0.0183
     22 C          63.3173   82.5705   10.8148 C.ar    1  UNL1       -0.0017
     23 C          63.2514   81.1210   10.4345 C.ar    1  UNL1        0.0293
     24 C          62.8299   80.0983   11.4476 C.ar    1  UNL1        0.1401
     25 F          62.7640   78.6487   11.0673 F       1  UNL1       -0.2042
     26 C          62.4743   80.5250   12.8409 C.ar    1  UNL1        0.0293
     27 C          62.5402   81.9745   13.2212 C.ar    1  UNL1       -0.0017
     28 C          63.0265   84.8433   14.0351 C.ar    1  UNL1       -0.0183
     29 C          64.2984   85.2942   14.6901 C.ar    1  UNL1       -0.0017
     30 C          64.2973   85.6908   16.1367 C.ar    1  UNL1        0.0293
     31 C          63.0243   85.6365   16.9283 C.ar    1  UNL1        0.1401
     32 F          63.0233   86.0332   18.3749 F       1  UNL1       -0.2042
     33 C          61.7525   85.1856   16.2733 C.ar    1  UNL1        0.0293
     34 C          61.7536   84.7890   14.8268 C.ar    1  UNL1       -0.0017
@<TRIPOS>BOND
     1     8     9    2
     2     9    10    1
     3    10    11    2
     4    11    12    1
     5    12    13    1
     6    13    14    2
     7    14    15    1
     8    15    16    2
     9    16    17    1
    10    17     2    1
    11     2     3    1
    12     3     4    1
    13     4     5    1
    14     5     1    1
    15     1    18    1
    16    18    19    1
    17    19    20    1
    18    20    21    1
    19    21    22   ar
    20    22    23   ar
    21    23    24   ar
    22    24    25    1
    23    24    26   ar
    24    26    27   ar
    25    20    28    1
    26    28    29   ar
    27    29    30   ar
    28    30    31   ar
    29    31    32    1
    30    31    33   ar
    31    33    34   ar
    32     5     6    1
    33     6     7    1
    34    17     9   am
    35     7     2    1
    36    16    11    1
    37    27    21   ar
    38    34    28   ar
@<TRIPOS>MOLECULE
*****
 34 38 0 0 0
SMALL
GASTEIGER

@<TRIPOS>ATOM
      1 C          61.3660   87.7237   10.5738 C.3     1  UNL1        0.0721
      2 C          64.1511   91.0277   11.8296 C.3     1  UNL1        0.0841
      3 C          63.8929   89.8733   12.7518 C.3     1  UNL1        0.0376
      4 C          62.9645   88.7720   12.3332 C.3     1  UNL1        0.0738
      5 N          62.2943   88.8250   10.9923 N.3     1  UNL1       -0.2726
      6 C          62.5526   89.9794   10.0700 C.3     1  UNL1        0.0738
      7 C          63.4809   91.0808   10.4886 C.3     1  UNL1        0.0376
      8 O          65.1558   93.5048    9.9576 O.2     1  UNL1       -0.2501
      9 C          65.5413   93.2676   11.3877 C.2     1  UNL1        0.3309
     10 N          66.4563   94.1274   12.2085 N.am    1  UNL1       -0.1647
     11 C          66.5600   93.5201   13.5761 C.2     1  UNL1        0.0706
     12 C          67.3193   93.9322   14.8023 C.3     1  UNL1        0.0705
     13 C          67.2277   93.1093   16.0530 C.2     1  UNL1       -0.0199
     14 C          66.3768   91.8742   16.0776 C.2     1  UNL1       -0.0029
     15 C          65.6175   91.4621   14.8514 C.2     1  UNL1        0.0156
     16 C          65.7091   92.2851   13.6007 C.2     1  UNL1        0.0668
     17 N          65.0795   92.1290   12.2481 N.am    1  UNL1       -0.2423
     18 C          61.3552   86.4257   11.3254 C.3     1  UNL1        0.0180
     19 C          62.5256   85.4926   11.2274 C.3     1  UNL1        0.0102
     20 C          62.7700   84.4802   12.3069 C.3     1  UNL1        0.0446
     21 C          62.9826   84.9294   13.7222 C.ar    1  UNL1       -0.0183
     22 C          64.0623   85.9210   14.0402 C.ar    1  UNL1       -0.0017
     23 C          64.2748   86.3702   15.4555 C.ar    1  UNL1        0.0293
     24 C          63.4078   85.8278   16.5527 C.ar    1  UNL1        0.1401
     25 F          63.6203   86.2770   17.9680 F       1  UNL1       -0.2042
     26 C          62.3281   84.8362   16.2347 C.ar    1  UNL1        0.0293
     27 C          62.1155   84.3870   14.8194 C.ar    1  UNL1       -0.0017
     28 C          62.8018   83.0186   11.9711 C.ar    1  UNL1       -0.0183
     29 C          62.3678   82.0056   12.9888 C.ar    1  UNL1       -0.0017
     30 C          62.3996   80.5441   12.6530 C.ar    1  UNL1        0.0293
     31 C          62.8655   80.0954   11.2996 C.ar    1  UNL1        0.1401
     32 F          62.8973   78.6338   10.9639 F       1  UNL1       -0.2042
     33 C          63.2995   81.1084   10.2819 C.ar    1  UNL1        0.0293
     34 C          63.2677   82.5699   10.6178 C.ar    1  UNL1       -0.0017
@<TRIPOS>BOND
     1     8     9    2
     2     9    10    1
     3    10    11    2
     4    11    12    1
     5    12    13    1
     6    13    14    2
     7    14    15    1
     8    15    16    2
     9    16    17    1
    10    17     2    1
    11     2     3    1
    12     3     4    1
    13     4     5    1
    14     5     1    1
    15     1    18    1
    16    18    19    1
    17    19    20    1
    18    20    21    1
    19    21    22   ar
    20    22    23   ar
    21    23    24   ar
    22    24    25    1
    23    24    26   ar
    24    26    27   ar
    25    20    28    1
    26    28    29   ar
    27    29    30   ar
    28    30    31   ar
    29    31    32    1
    30    31    33   ar
    31    33    34   ar
    32     5     6    1
    33     6     7    1
    34    17     9   am
    35     7     2    1
    36    16    11    1
    37    27    21   ar
    38    34    28   ar
