@<TRIPOS>MOLECULE
*****
 12 12 0 0 0
SMALL
GASTEIGER

@<TRIPOS>ATOM
      1 C          60.6456   86.5248    9.1291 C.1     1  UNL1       -0.0689
      2 C          61.5967   85.7212    9.9655 C.1     1  UNL1       -0.0614
      3 C          62.5478   84.9176   10.8019 C.ar    1  UNL1        0.0608
      4 C          63.4624   83.9227   10.1510 C.ar    1  UNL1        0.0114
      5 C          64.4135   83.1191   10.9874 C.ar    1  UNL1        0.0213
      6 C          64.4501   83.3104   12.4746 C.ar    1  UNL1        0.0989
      7 N          63.5356   84.3053   13.1255 N.ar    1  UNL1       -0.2417
      8 C          62.5844   85.1089   12.2891 C.ar    1  UNL1        0.1071
      9 N          58.4208   86.7081    7.7999 N.3     1  UNL1       -0.3102
     10 C          59.6945   87.3285    8.2927 C.3     1  UNL1        0.1432
     11 H          57.8994   87.3920    7.2515 H       1  UNL1        0.1198
     12 H          57.8574   86.4102    8.5963 H       1  UNL1        0.1198
@<TRIPOS>BOND
     1     9    10    1
     2    10     1    1
     3     1     2    3
     4     2     3    1
     5     3     4   ar
     6     4     5   ar
     7     5     6   ar
     8     6     7   ar
     9     7     8   ar
    10     8     3   ar
    11     9    11    1
    12     9    12    1
@<TRIPOS>MOLECULE
*****
 12 12 0 0 0
SMALL
GASTEIGER

@<TRIPOS>ATOM
      1 C          62.8702   84.4881   11.0702 C.1     1  UNL1       -0.0689
      2 C          62.1059   85.5586   10.3492 C.1     1  UNL1       -0.0614
      3 C          61.3416   86.6291    9.6282 C.ar    1  UNL1        0.0608
      4 C          60.3308   86.2556    8.5848 C.ar    1  UNL1        0.0114
      5 C          59.5665   87.3261    7.8638 C.ar    1  UNL1        0.0213
      6 C          59.8130   88.7701    8.1862 C.ar    1  UNL1        0.0989
      7 N          60.8237   89.1436    9.2296 N.ar    1  UNL1       -0.2417
      8 C          61.5881   88.0731    9.9506 C.ar    1  UNL1        0.1071
      9 N          64.9350   82.9197   11.2337 N.3     1  UNL1       -0.3102
     10 C          63.6346   83.4176   11.7912 C.3     1  UNL1        0.1432
     11 H          65.3142   82.1986   11.8474 H       1  UNL1        0.1198
     12 H          65.5961   83.6938   11.1696 H       1  UNL1        0.1198
@<TRIPOS>BOND
     1     9    10    1
     2    10     1    1
     3     1     2    3
     4     2     3    1
     5     3     4   ar
     6     4     5   ar
     7     5     6   ar
     8     6     7   ar
     9     7     8   ar
    10     8     3   ar
    11     9    11    1
    12     9    12    1
@<TRIPOS>MOLECULE
*****
 12 12 0 0 0
SMALL
GASTEIGER

@<TRIPOS>ATOM
      1 C          58.9120   90.3537    5.9580 C.1     1  UNL1       -0.0689
      2 C          59.4140   89.4451    7.0407 C.1     1  UNL1       -0.0614
      3 C          59.9161   88.5366    8.1235 C.ar    1  UNL1        0.0608
      4 C          60.0673   87.0677    7.8599 C.ar    1  UNL1        0.0114
      5 C          60.5694   86.1591    8.9427 C.ar    1  UNL1        0.0213
      6 C          60.9202   86.7194   10.2891 C.ar    1  UNL1        0.0989
      7 N          60.7690   88.1883   10.5528 N.ar    1  UNL1       -0.2417
      8 C          60.2670   89.0968    9.4700 C.ar    1  UNL1        0.1071
      9 N          57.1628   92.0675    5.0901 N.3     1  UNL1       -0.3102
     10 C          58.4099   91.2623    4.8752 C.3     1  UNL1        0.1432
     11 H          56.9701   92.6246    4.2577 H       1  UNL1        0.1198
     12 H          57.2913   92.6861    5.8909 H       1  UNL1        0.1198
@<TRIPOS>BOND
     1     9    10    1
     2    10     1    1
     3     1     2    3
     4     2     3    1
     5     3     4   ar
     6     4     5   ar
     7     5     6   ar
     8     6     7   ar
     9     7     8   ar
    10     8     3   ar
    11     9    11    1
    12     9    12    1
@<TRIPOS>MOLECULE
*****
 12 12 0 0 0
SMALL
GASTEIGER

@<TRIPOS>ATOM
      1 C          59.9068   88.3147   11.1028 C.1     1  UNL1       -0.0689
      2 C          60.4357   87.4175   10.0233 C.1     1  UNL1       -0.0614
      3 C          60.9647   86.5203    8.9439 C.ar    1  UNL1        0.0608
      4 C          62.3853   86.0417    8.9956 C.ar    1  UNL1        0.0114
      5 C          62.9143   85.1445    7.9161 C.ar    1  UNL1        0.0213
      6 C          62.0226   84.7259    6.7849 C.ar    1  UNL1        0.0989
      7 N          60.6020   85.2045    6.7332 N.ar    1  UNL1       -0.2417
      8 C          60.0730   86.1017    7.8127 C.ar    1  UNL1        0.1071
      9 N          58.5004   88.6502   13.2613 N.3     1  UNL1       -0.3102
     10 C          59.3778   89.2119   12.1822 C.3     1  UNL1        0.1432
     11 H          58.2347   89.3950   13.9056 H       1  UNL1        0.1198
     12 H          59.0079   87.9259   13.7696 H       1  UNL1        0.1198
@<TRIPOS>BOND
     1     9    10    1
     2    10     1    1
     3     1     2    3
     4     2     3    1
     5     3     4   ar
     6     4     5   ar
     7     5     6   ar
     8     6     7   ar
     9     7     8   ar
    10     8     3   ar
    11     9    11    1
    12     9    12    1
@<TRIPOS>MOLECULE
*****
 12 12 0 0 0
SMALL
GASTEIGER

@<TRIPOS>ATOM
      1 C          62.3144   86.3109   11.4274 C.1     1  UNL1       -0.0689
      2 C          62.5306   84.9437   12.0055 C.1     1  UNL1       -0.0614
      3 C          62.7468   83.5765   12.5835 C.ar    1  UNL1        0.0608
      4 C          62.6714   82.3677   11.6987 C.ar    1  UNL1        0.0114
      5 C          62.8876   81.0005   12.2767 C.ar    1  UNL1        0.0213
      6 C          63.1791   80.8422   13.7395 C.ar    1  UNL1        0.0989
      7 N          63.2545   82.0511   14.6243 N.ar    1  UNL1       -0.2417
      8 C          63.0383   83.4182   14.0463 C.ar    1  UNL1        0.1071
      9 N          61.4280   88.7411   11.6683 N.3     1  UNL1       -0.3102
     10 C          62.0982   87.6780   10.8494 C.3     1  UNL1        0.1432
     11 H          61.3641   89.6007   11.1229 H       1  UNL1        0.1198
     12 H          61.9733   88.9141   12.5128 H       1  UNL1        0.1198
@<TRIPOS>BOND
     1     9    10    1
     2    10     1    1
     3     1     2    3
     4     2     3    1
     5     3     4   ar
     6     4     5   ar
     7     5     6   ar
     8     6     7   ar
     9     7     8   ar
    10     8     3   ar
    11     9    11    1
    12     9    12    1
@<TRIPOS>MOLECULE
*****
 12 12 0 0 0
SMALL
GASTEIGER

@<TRIPOS>ATOM
      1 C          60.9551   87.3310   10.7347 C.1     1  UNL1       -0.0689
      2 C          61.7996   86.1130   10.9652 C.1     1  UNL1       -0.0614
      3 C          62.6441   84.8950   11.1958 C.ar    1  UNL1        0.0608
      4 C          63.3336   84.2308   10.0411 C.ar    1  UNL1        0.0114
      5 C          64.1782   83.0128   10.2716 C.ar    1  UNL1        0.0213
      6 C          64.3332   82.4589   11.6569 C.ar    1  UNL1        0.0989
      7 N          63.6436   83.1230   12.8117 N.ar    1  UNL1       -0.2417
      8 C          62.7991   84.3410   12.5811 C.ar    1  UNL1        0.1071
      9 N          60.4951   89.5387    9.4446 N.3     1  UNL1       -0.3102
     10 C          60.1106   88.5491   10.5041 C.3     1  UNL1        0.1432
     11 H          59.8147   90.2984    9.4259 H       1  UNL1        0.1198
     12 H          60.5119   89.0750    8.5362 H       1  UNL1        0.1198
@<TRIPOS>BOND
     1     9    10    1
     2    10     1    1
     3     1     2    3
     4     2     3    1
     5     3     4   ar
     6     4     5   ar
     7     5     6   ar
     8     6     7   ar
     9     7     8   ar
    10     8     3   ar
    11     9    11    1
    12     9    12    1
@<TRIPOS>MOLECULE
*****
 12 12 0 0 0
SMALL
GASTEIGER

@<TRIPOS>ATOM
      1 C          66.9100   94.0439    9.6596 C.1     1  UNL1       -0.0689
      2 C          65.9746   93.1824   10.4550 C.1     1  UNL1       -0.0614
      3 C          65.0391   92.3208   11.2504 C.ar    1  UNL1        0.0608
      4 C          63.9459   91.5626   10.5577 C.ar    1  UNL1        0.0114
      5 C          63.0104   90.7010   11.3530 C.ar    1  UNL1        0.0213
      6 C          63.1682   90.5977   12.8411 C.ar    1  UNL1        0.0989
      7 N          64.2614   91.3559   13.5338 N.ar    1  UNL1       -0.2417
      8 C          65.1969   92.2175   12.7384 C.ar    1  UNL1        0.1071
      9 N          67.6307   96.3888    8.8039 N.3     1  UNL1       -0.3102
     10 C          67.8455   94.9055    8.8643 C.3     1  UNL1        0.1432
     11 H          68.3540   96.8137    8.2237 H       1  UNL1        0.1198
     12 H          67.6780   96.7778    9.7456 H       1  UNL1        0.1198
@<TRIPOS>BOND
     1     9    10    1
     2    10     1    1
     3     1     2    3
     4     2     3    1
     5     3     4   ar
     6     4     5   ar
     7     5     6   ar
     8     6     7   ar
     9     7     8   ar
    10     8     3   ar
    11     9    11    1
    12     9    12    1
@<TRIPOS>MOLECULE
*****
 12 12 0 0 0
SMALL
GASTEIGER

@<TRIPOS>ATOM
      1 C          67.1223   93.9122    9.7622 C.1     1  UNL1       -0.0689
      2 C          66.6533   93.2023   10.9976 C.1     1  UNL1       -0.0614
      3 C          66.1843   92.4925   12.2330 C.ar    1  UNL1        0.0608
      4 C          67.1519   92.1944   13.3397 C.ar    1  UNL1        0.0114
      5 C          66.6829   91.4846   14.5751 C.ar    1  UNL1        0.0213
      6 C          65.2463   91.0728   14.7038 C.ar    1  UNL1        0.0989
      7 N          64.2787   91.3709   13.5971 N.ar    1  UNL1       -0.2417
      8 C          64.7477   92.0807   12.3617 C.ar    1  UNL1        0.1071
      9 N          67.8275   96.1029    8.5568 N.3     1  UNL1       -0.3102
     10 C          67.5913   94.6220    8.5268 C.3     1  UNL1        0.1432
     11 H          68.1408   96.4159    7.6379 H       1  UNL1        0.1198
     12 H          68.5422   96.3192    9.2516 H       1  UNL1        0.1198
@<TRIPOS>BOND
     1     9    10    1
     2    10     1    1
     3     1     2    3
     4     2     3    1
     5     3     4   ar
     6     4     5   ar
     7     5     6   ar
     8     6     7   ar
     9     7     8   ar
    10     8     3   ar
    11     9    11    1
    12     9    12    1
@<TRIPOS>MOLECULE
*****
 12 12 0 0 0
SMALL
GASTEIGER

@<TRIPOS>ATOM
      1 C          66.9935   92.7404   10.9706 C.1     1  UNL1       -0.0689
      2 C          66.2606   92.3613   12.2232 C.1     1  UNL1       -0.0614
      3 C          65.5278   91.9821   13.4759 C.ar    1  UNL1        0.0608
      4 C          64.4741   90.9154   13.4347 C.ar    1  UNL1        0.0114
      5 C          63.7413   90.5362   14.6874 C.ar    1  UNL1        0.0213
      6 C          64.0622   91.2239   15.9813 C.ar    1  UNL1        0.0989
      7 N          65.1159   92.2906   16.0225 N.ar    1  UNL1       -0.2417
      8 C          65.8487   92.6697   14.7698 C.ar    1  UNL1        0.1071
      9 N          69.2072   92.9024    9.6204 N.3     1  UNL1       -0.3102
     10 C          67.7263   93.1196    9.7179 C.3     1  UNL1        0.1432
     11 H          69.5372   93.2143    8.7071 H       1  UNL1        0.1198
     12 H          69.4137   91.9103    9.7360 H       1  UNL1        0.1198
@<TRIPOS>BOND
     1     9    10    1
     2    10     1    1
     3     1     2    3
     4     2     3    1
     5     3     4   ar
     6     4     5   ar
     7     5     6   ar
     8     6     7   ar
     9     7     8   ar
    10     8     3   ar
    11     9    11    1
    12     9    12    1
