@<TRIPOS>MOLECULE
*****
 27 29 0 0 0
SMALL
GASTEIGER

@<TRIPOS>ATOM
      1 C          64.5020   89.9449   14.9630 C.ar    1  UNL1        0.0899
      2 C          63.6175   90.2022   16.1468 C.ar    1  UNL1        0.0572
      3 S          63.0433   88.8894   16.5904 S.2     1  UNL1       -0.0508
      4 C          63.5729   87.8207   15.6806 C.ar    1  UNL1        0.1655
      5 N          64.4744   88.4731   14.6749 N.ar    1  UNL1       -0.2239
      6 C          67.3967   92.4581   13.9360 C.ar    1  UNL1        0.1286
      7 C          66.6208   91.4250   14.6979 C.ar    1  UNL1        0.0356
      8 C          65.2779   90.9781   14.2010 C.ar    1  UNL1        0.0225
      9 C          64.7110   91.5643   12.9421 C.ar    1  UNL1        0.0223
     10 C          65.4869   92.5975   12.1802 C.ar    1  UNL1        0.1003
     11 N          66.8298   93.0443   12.6771 N.ar    1  UNL1       -0.2294
     12 C          68.8562   93.5995   15.7573 C.3     1  UNL1        0.1096
     13 N          68.7396   92.9050   14.4329 N.pl3   1  UNL1       -0.3167
     14 H          69.5445   92.7424   13.8898 H       1  UNL1        0.1482
     15 N          63.2565   86.3567   15.7624 N.am    1  UNL1       -0.2639
     16 C          64.2823   85.3435   15.3489 C.2     1  UNL1        0.2320
     17 O          65.6246   85.7942   14.8536 O.2     1  UNL1       -0.2744
     18 H          62.3755   86.0609   16.0874 H       1  UNL1        0.1567
     19 C          63.9659   83.8796   15.4306 C.3     1  UNL1        0.1118
     20 C          63.5857   83.1242   14.1917 C.ar    1  UNL1       -0.0101
     21 C          62.5575   82.0344   14.2637 C.ar    1  UNL1       -0.0036
     22 C          62.1773   81.2790   13.0247 C.ar    1  UNL1        0.0028
     23 C          62.8254   81.6134   11.7139 C.ar    1  UNL1        0.0369
     24 C          63.8536   82.7032   11.6420 C.ar    1  UNL1        0.1384
     25 C          64.2337   83.4585   12.8808 C.ar    1  UNL1        0.0331
     26 O          64.5016   83.0376   10.3312 O.3     1  UNL1       -0.4714
     27 C          63.8099   83.9524    9.3644 C.3     1  UNL1        0.2525
@<TRIPOS>BOND
     1    12    13    1
     2    13     6    1
     3     6     7   ar
     4     7     8   ar
     5     8     1    1
     6     1     2   ar
     7     2     3   ar
     8     3     4   ar
     9     4    15    1
    10    15    16   am
    11    16    17    2
    12    16    19    1
    13    19    20    1
    14    20    21   ar
    15    21    22   ar
    16    22    23   ar
    17    23    24   ar
    18    24    26    1
    19    26    27    1
    20    24    25   ar
    21     4     5   ar
    22     8     9   ar
    23     9    10   ar
    24    10    11   ar
    25    11     6   ar
    26     5     1   ar
    27    25    20   ar
    28    13    14    1
    29    15    18    1
@<TRIPOS>MOLECULE
*****
 27 29 0 0 0
SMALL
GASTEIGER

@<TRIPOS>ATOM
      1 C          62.7646   85.9732   11.6232 C.ar    1  UNL1        0.0899
      2 C          62.0824   86.7372   10.5273 C.ar    1  UNL1        0.0572
      3 S          62.1085   88.1922   10.8909 S.2     1  UNL1       -0.0508
      4 C          62.8069   88.3275   12.2115 C.ar    1  UNL1        0.1655
      5 N          63.2124   86.9561   12.6641 N.ar    1  UNL1       -0.2239
      6 C          62.7469   82.2267   12.9320 C.ar    1  UNL1        0.1286
      7 C          62.5475   83.7126   12.8851 C.ar    1  UNL1        0.0356
      8 C          62.9640   84.4872   11.6701 C.ar    1  UNL1        0.0225
      9 C          63.5799   83.7760   10.5019 C.ar    1  UNL1        0.0223
     10 C          63.7793   82.2901   10.5487 C.ar    1  UNL1        0.1003
     11 N          63.3628   81.5154   11.7638 N.ar    1  UNL1       -0.2294
     12 C          60.9669   80.8300   14.2090 C.3     1  UNL1        0.1096
     13 N          62.3304   81.4520   14.1471 N.pl3   1  UNL1       -0.3167
     14 H          62.9520   81.3518   14.9040 H       1  UNL1        0.1482
     15 N          63.0561   89.6092   12.9498 N.am    1  UNL1       -0.2639
     16 C          63.6750   89.5797   14.3159 C.2     1  UNL1        0.2320
     17 O          64.0448   88.2685   14.9436 O.2     1  UNL1       -0.2744
     18 H          62.8134   90.4698   12.5379 H       1  UNL1        0.1567
     19 C          63.9242   90.8614   15.0542 C.3     1  UNL1        0.1118
     20 C          65.2506   91.5513   14.9326 C.ar    1  UNL1       -0.0101
     21 C          65.8510   92.2374   16.1236 C.ar    1  UNL1       -0.0036
     22 C          67.1774   92.9273   16.0019 C.ar    1  UNL1        0.0028
     23 C          67.9033   92.9310   14.6893 C.ar    1  UNL1        0.0369
     24 C          67.3029   92.2448   13.4983 C.ar    1  UNL1        0.1384
     25 C          65.9766   91.5549   13.6199 C.ar    1  UNL1        0.0331
     26 O          68.0288   92.2484   12.1856 O.3     1  UNL1       -0.4714
     27 C          67.2725   92.4797   10.9110 C.3     1  UNL1        0.2525
@<TRIPOS>BOND
     1    12    13    1
     2    13     6    1
     3     6     7   ar
     4     7     8   ar
     5     8     1    1
     6     1     2   ar
     7     2     3   ar
     8     3     4   ar
     9     4    15    1
    10    15    16   am
    11    16    17    2
    12    16    19    1
    13    19    20    1
    14    20    21   ar
    15    21    22   ar
    16    22    23   ar
    17    23    24   ar
    18    24    26    1
    19    26    27    1
    20    24    25   ar
    21     4     5   ar
    22     8     9   ar
    23     9    10   ar
    24    10    11   ar
    25    11     6   ar
    26     5     1   ar
    27    25    20   ar
    28    13    14    1
    29    15    18    1
@<TRIPOS>MOLECULE
*****
 27 29 0 0 0
SMALL
GASTEIGER

@<TRIPOS>ATOM
      1 C          63.9437   91.0904   11.9582 C.ar    1  UNL1        0.0899
      2 C          62.9564   91.2978   10.8482 C.ar    1  UNL1        0.0572
      3 S          62.2076   90.0136   10.6479 S.2     1  UNL1       -0.0508
      4 C          62.7321   89.0125   11.6342 C.ar    1  UNL1        0.1655
      5 N          63.8050   89.6780   12.4440 N.ar    1  UNL1       -0.2239
      6 C          66.3294   93.0617   14.4426 C.ar    1  UNL1        0.1286
      7 C          65.3716   92.0368   13.9115 C.ar    1  UNL1        0.0356
      8 C          64.9015   92.1154   12.4893 C.ar    1  UNL1        0.0225
      9 C          65.3891   93.2190   11.5981 C.ar    1  UNL1        0.0223
     10 C          66.3469   94.2440   12.1292 C.ar    1  UNL1        0.1003
     11 N          66.8170   94.1653   13.5514 N.ar    1  UNL1       -0.2294
     12 C          68.1265   92.3602   16.1828 C.3     1  UNL1        0.1096
     13 N          66.7996   92.9831   15.8648 N.pl3   1  UNL1       -0.3167
     14 H          66.2372   93.3403   16.5896 H       1  UNL1        0.1482
     15 N          62.2655   87.5948   11.7843 N.am    1  UNL1       -0.2639
     16 C          62.1753   86.7036   10.5812 C.2     1  UNL1        0.2320
     17 O          62.5516   87.2300    9.2279 O.2     1  UNL1       -0.2744
     18 H          62.0185   87.2493   12.6725 H       1  UNL1        0.1567
     19 C          61.7087   85.2859   10.7313 C.3     1  UNL1        0.1118
     20 C          62.6113   84.2611   11.3517 C.ar    1  UNL1       -0.0101
     21 C          63.4929   83.4139   10.4828 C.ar    1  UNL1       -0.0036
     22 C          64.3955   82.3889   11.1032 C.ar    1  UNL1        0.0028
     23 C          64.4165   82.2113   12.5925 C.ar    1  UNL1        0.0369
     24 C          63.5349   83.0585   13.4614 C.ar    1  UNL1        0.1384
     25 C          62.6324   84.0834   12.8410 C.ar    1  UNL1        0.0331
     26 O          63.5560   82.8809   14.9507 O.3     1  UNL1       -0.4714
     27 C          62.7746   83.8133   15.8283 C.3     1  UNL1        0.2525
@<TRIPOS>BOND
     1    12    13    1
     2    13     6    1
     3     6     7   ar
     4     7     8   ar
     5     8     1    1
     6     1     2   ar
     7     2     3   ar
     8     3     4   ar
     9     4    15    1
    10    15    16   am
    11    16    17    2
    12    16    19    1
    13    19    20    1
    14    20    21   ar
    15    21    22   ar
    16    22    23   ar
    17    23    24   ar
    18    24    26    1
    19    26    27    1
    20    24    25   ar
    21     4     5   ar
    22     8     9   ar
    23     9    10   ar
    24    10    11   ar
    25    11     6   ar
    26     5     1   ar
    27    25    20   ar
    28    13    14    1
    29    15    18    1
@<TRIPOS>MOLECULE
*****
 27 29 0 0 0
SMALL
GASTEIGER

@<TRIPOS>ATOM
      1 C          63.8662   91.0425   11.8090 C.ar    1  UNL1        0.0899
      2 C          62.8468   91.2482   10.7281 C.ar    1  UNL1        0.0572
      3 S          62.0878   89.9658   10.5566 S.2     1  UNL1       -0.0508
      4 C          62.6382   88.9674   11.5316 C.ar    1  UNL1        0.1655
      5 N          63.7373   89.6329   12.3055 N.ar    1  UNL1       -0.2239
      6 C          66.3402   94.1450   11.8717 C.ar    1  UNL1        0.1286
      7 C          65.3633   93.1210   11.3747 C.ar    1  UNL1        0.0356
      8 C          64.8431   92.0665   12.3061 C.ar    1  UNL1        0.0225
      9 C          65.2998   92.0361   13.7345 C.ar    1  UNL1        0.0223
     10 C          66.2767   93.0601   14.2315 C.ar    1  UNL1        0.1003
     11 N          66.7969   94.1145   13.3001 N.ar    1  UNL1       -0.2294
     12 C          66.9463   94.9238    9.4684 C.3     1  UNL1        0.1096
     13 N          66.8603   95.1995   10.9403 N.pl3   1  UNL1       -0.3167
     14 H          67.1453   96.0725   11.2951 H       1  UNL1        0.1482
     15 N          62.1714   87.5522   11.7025 N.am    1  UNL1       -0.2639
     16 C          62.1598   86.6193   10.5280 C.2     1  UNL1        0.2320
     17 O          62.6150   87.1016    9.1825 O.2     1  UNL1       -0.2744
     18 H          61.8727   87.2357   12.5855 H       1  UNL1        0.1567
     19 C          61.6931   85.2041   10.6989 C.3     1  UNL1        0.1118
     20 C          62.5955   84.1883   11.3342 C.ar    1  UNL1       -0.0101
     21 C          63.4991   83.3494   10.4800 C.ar    1  UNL1       -0.0036
     22 C          64.4016   82.3335   11.1154 C.ar    1  UNL1        0.0028
     23 C          64.4005   82.1566   12.6049 C.ar    1  UNL1        0.0369
     24 C          63.4968   82.9956   13.4591 C.ar    1  UNL1        0.1384
     25 C          62.5944   84.0113   12.8238 C.ar    1  UNL1        0.0331
     26 O          63.4957   82.8187   14.9486 O.3     1  UNL1       -0.4714
     27 C          62.7937   83.8161   15.8218 C.3     1  UNL1        0.2525
@<TRIPOS>BOND
     1    12    13    1
     2    13     6    1
     3     6     7   ar
     4     7     8   ar
     5     8     1    1
     6     1     2   ar
     7     2     3   ar
     8     3     4   ar
     9     4    15    1
    10    15    16   am
    11    16    17    2
    12    16    19    1
    13    19    20    1
    14    20    21   ar
    15    21    22   ar
    16    22    23   ar
    17    23    24   ar
    18    24    26    1
    19    26    27    1
    20    24    25   ar
    21     4     5   ar
    22     8     9   ar
    23     9    10   ar
    24    10    11   ar
    25    11     6   ar
    26     5     1   ar
    27    25    20   ar
    28    13    14    1
    29    15    18    1
@<TRIPOS>MOLECULE
*****
 27 29 0 0 0
SMALL
GASTEIGER

@<TRIPOS>ATOM
      1 C          62.7766   86.1072   11.5105 C.ar    1  UNL1        0.0899
      2 C          63.0119   85.0340   12.5317 C.ar    1  UNL1        0.0572
      3 S          63.5248   85.6872   13.7808 S.2     1  UNL1       -0.0508
      4 C          63.6065   87.1641   13.5316 C.ar    1  UNL1        0.1655
      5 N          63.1441   87.4237   12.1285 N.ar    1  UNL1       -0.2239
      6 C          60.4277   86.2713    8.3159 C.ar    1  UNL1        0.1286
      7 C          60.9405   86.4782    9.7102 C.ar    1  UNL1        0.0356
      8 C          62.2638   85.9003   10.1161 C.ar    1  UNL1        0.0225
      9 C          63.0743   85.1154    9.1277 C.ar    1  UNL1        0.0223
     10 C          62.5615   84.9086    7.7334 C.ar    1  UNL1        0.1003
     11 N          61.2382   85.4865    7.3275 N.ar    1  UNL1       -0.2294
     12 C          59.0038   88.2956    7.5255 C.3     1  UNL1        0.1096
     13 N          59.1043   86.8493    7.9100 N.pl3   1  UNL1       -0.3167
     14 H          58.3017   86.2793    7.8960 H       1  UNL1        0.1482
     15 N          64.0694   88.1996   14.5132 N.am    1  UNL1       -0.2639
     16 C          63.5194   89.5937   14.4479 C.2     1  UNL1        0.2320
     17 O          62.5067   89.9522   13.4011 O.2     1  UNL1       -0.2744
     18 H          64.7341   87.9643   15.2002 H       1  UNL1        0.1567
     19 C          63.9823   90.6292   15.4295 C.3     1  UNL1        0.1118
     20 C          65.2075   91.4441   15.1381 C.ar    1  UNL1       -0.0101
     21 C          65.8589   92.2363   16.2325 C.ar    1  UNL1       -0.0036
     22 C          67.0841   93.0513   15.9411 C.ar    1  UNL1        0.0028
     23 C          67.6578   93.0738   14.5554 C.ar    1  UNL1        0.0369
     24 C          67.0063   92.2814   13.4609 C.ar    1  UNL1        0.1384
     25 C          65.7812   91.4666   13.7523 C.ar    1  UNL1        0.0331
     26 O          67.5800   92.3040   12.0752 O.3     1  UNL1       -0.4714
     27 C          66.8307   92.9778   10.9641 C.3     1  UNL1        0.2525
@<TRIPOS>BOND
     1    12    13    1
     2    13     6    1
     3     6     7   ar
     4     7     8   ar
     5     8     1    1
     6     1     2   ar
     7     2     3   ar
     8     3     4   ar
     9     4    15    1
    10    15    16   am
    11    16    17    2
    12    16    19    1
    13    19    20    1
    14    20    21   ar
    15    21    22   ar
    16    22    23   ar
    17    23    24   ar
    18    24    26    1
    19    26    27    1
    20    24    25   ar
    21     4     5   ar
    22     8     9   ar
    23     9    10   ar
    24    10    11   ar
    25    11     6   ar
    26     5     1   ar
    27    25    20   ar
    28    13    14    1
    29    15    18    1
@<TRIPOS>MOLECULE
*****
 27 29 0 0 0
SMALL
GASTEIGER

@<TRIPOS>ATOM
      1 C          62.3655   85.4037   11.2981 C.ar    1  UNL1        0.0899
      2 C          61.3730   86.0015   10.3453 C.ar    1  UNL1        0.0572
      3 S          61.3566   87.4854   10.5637 S.2     1  UNL1       -0.0508
      4 C          62.3389   87.8048   11.6515 C.ar    1  UNL1        0.1655
      5 N          62.9624   86.5182   12.1053 N.ar    1  UNL1       -0.2239
      6 C          62.5739   81.7126   12.7412 C.ar    1  UNL1        0.1286
      7 C          62.2375   83.1691   12.6173 C.ar    1  UNL1        0.0356
      8 C          62.7019   83.9471   11.4219 C.ar    1  UNL1        0.0225
      9 C          63.5028   83.2686   10.3504 C.ar    1  UNL1        0.0223
     10 C          63.8392   81.8121   10.4742 C.ar    1  UNL1        0.1003
     11 N          63.3748   81.0341   11.6696 N.ar    1  UNL1       -0.2294
     12 C          60.6448   80.6915   14.1504 C.3     1  UNL1        0.1096
     13 N          62.1094   80.9346   13.9366 N.pl3   1  UNL1       -0.3167
     14 H          62.7659   80.5835   14.5808 H       1  UNL1        0.1482
     15 N          62.6441   89.1708   12.1906 N.am    1  UNL1       -0.2639
     16 C          63.4562   89.3185   13.4431 C.2     1  UNL1        0.2320
     17 O          63.9631   88.1002   14.1564 O.2     1  UNL1       -0.2744
     18 H          62.3115   89.9704   11.7225 H       1  UNL1        0.1567
     19 C          63.7614   90.6846   13.9823 C.3     1  UNL1        0.1118
     20 C          64.8656   91.5001   13.3775 C.ar    1  UNL1       -0.0101
     21 C          64.7295   92.0273   11.9799 C.ar    1  UNL1       -0.0036
     22 C          65.8337   92.8428   11.3751 C.ar    1  UNL1        0.0028
     23 C          67.0739   93.1311   12.1680 C.ar    1  UNL1        0.0369
     24 C          67.2100   92.6039   13.5657 C.ar    1  UNL1        0.1384
     25 C          66.1059   91.7884   14.1704 C.ar    1  UNL1        0.0331
     26 O          68.4502   92.8922   14.3586 O.3     1  UNL1       -0.4714
     27 C          68.3417   93.4923   15.7290 C.3     1  UNL1        0.2525
@<TRIPOS>BOND
     1    12    13    1
     2    13     6    1
     3     6     7   ar
     4     7     8   ar
     5     8     1    1
     6     1     2   ar
     7     2     3   ar
     8     3     4   ar
     9     4    15    1
    10    15    16   am
    11    16    17    2
    12    16    19    1
    13    19    20    1
    14    20    21   ar
    15    21    22   ar
    16    22    23   ar
    17    23    24   ar
    18    24    26    1
    19    26    27    1
    20    24    25   ar
    21     4     5   ar
    22     8     9   ar
    23     9    10   ar
    24    10    11   ar
    25    11     6   ar
    26     5     1   ar
    27    25    20   ar
    28    13    14    1
    29    15    18    1
@<TRIPOS>MOLECULE
*****
 27 29 0 0 0
SMALL
GASTEIGER

@<TRIPOS>ATOM
      1 C          63.8534   87.6298   14.4217 C.ar    1  UNL1        0.0899
      2 C          63.6489   88.3814   15.7036 C.ar    1  UNL1        0.0572
      3 S          63.7596   89.8470   15.4043 S.2     1  UNL1       -0.0508
      4 C          64.0325   90.0013   13.9374 C.ar    1  UNL1        0.1655
      5 N          64.0904   88.6309   13.3302 N.ar    1  UNL1       -0.2239
      6 C          63.3936   84.0433   12.7860 C.ar    1  UNL1        0.1286
      7 C          63.4213   85.5342   12.9479 C.ar    1  UNL1        0.0356
      8 C          63.8257   86.1387   14.2598 C.ar    1  UNL1        0.0225
      9 C          64.2023   85.2523   15.4097 C.ar    1  UNL1        0.0223
     10 C          64.1746   83.7614   15.2478 C.ar    1  UNL1        0.1003
     11 N          63.7702   83.1569   13.9359 N.ar    1  UNL1       -0.2294
     12 C          64.0379   82.9758   10.5066 C.3     1  UNL1        0.1096
     13 N          62.9892   83.4388   11.4741 N.pl3   1  UNL1       -0.3167
     14 H          62.0356   83.3458   11.2480 H       1  UNL1        0.1482
     15 N          64.2153   91.2981   13.2062 N.am    1  UNL1       -0.2639
     16 C          65.5430   91.9955   13.2365 C.2     1  UNL1        0.2320
     17 O          66.6878   91.3960   13.9981 O.2     1  UNL1       -0.2744
     18 H          63.4639   91.6916   12.7063 H       1  UNL1        0.1567
     19 C          65.7258   93.2923   12.5053 C.3     1  UNL1        0.1118
     20 C          66.5808   93.3450   11.2739 C.ar    1  UNL1       -0.0101
     21 C          67.3812   92.1442   10.8648 C.ar    1  UNL1       -0.0036
     22 C          68.2362   92.1969    9.6334 C.ar    1  UNL1        0.0028
     23 C          68.2907   93.4503    8.8112 C.ar    1  UNL1        0.0369
     24 C          67.4902   94.6511    9.2203 C.ar    1  UNL1        0.1384
     25 C          66.6353   94.5984   10.4517 C.ar    1  UNL1        0.0331
     26 O          67.5447   95.9045    8.3982 O.3     1  UNL1       -0.4714
     27 C          66.3362   96.7870    8.2952 C.3     1  UNL1        0.2525
@<TRIPOS>BOND
     1    12    13    1
     2    13     6    1
     3     6     7   ar
     4     7     8   ar
     5     8     1    1
     6     1     2   ar
     7     2     3   ar
     8     3     4   ar
     9     4    15    1
    10    15    16   am
    11    16    17    2
    12    16    19    1
    13    19    20    1
    14    20    21   ar
    15    21    22   ar
    16    22    23   ar
    17    23    24   ar
    18    24    26    1
    19    26    27    1
    20    24    25   ar
    21     4     5   ar
    22     8     9   ar
    23     9    10   ar
    24    10    11   ar
    25    11     6   ar
    26     5     1   ar
    27    25    20   ar
    28    13    14    1
    29    15    18    1
@<TRIPOS>MOLECULE
*****
 27 29 0 0 0
SMALL
GASTEIGER

@<TRIPOS>ATOM
      1 C          62.1365   87.6742   11.0059 C.ar    1  UNL1        0.0899
      2 C          60.8282   88.4066   10.9623 C.ar    1  UNL1        0.0572
      3 S          60.9510   89.6269   11.8259 S.2     1  UNL1       -0.0508
      4 C          62.3353   89.6487   12.4033 C.ar    1  UNL1        0.1655
      5 N          63.0679   88.4419   11.8965 N.ar    1  UNL1       -0.2239
      6 C          63.2554   83.9263   10.3342 C.ar    1  UNL1        0.1286
      7 C          62.9348   85.2023   11.0546 C.ar    1  UNL1        0.0356
      8 C          62.4571   86.3982   10.2854 C.ar    1  UNL1        0.0225
      9 C          62.3000   86.3181    8.7959 C.ar    1  UNL1        0.0223
     10 C          62.6206   85.0421    8.0755 C.ar    1  UNL1        0.1003
     11 N          63.0983   83.8462    8.8446 N.ar    1  UNL1       -0.2294
     12 C          62.7411   81.7634   11.6786 C.3     1  UNL1        0.1096
     13 N          63.7331   82.7304   11.1034 N.pl3   1  UNL1       -0.3167
     14 H          64.6977   82.5802   11.2306 H       1  UNL1        0.1482
     15 N          62.8896   90.6938   13.3256 N.am    1  UNL1       -0.2639
     16 C          63.6259   90.2844   14.5667 C.2     1  UNL1        0.2320
     17 O          63.8079   88.8300   14.8855 O.2     1  UNL1       -0.2744
     18 H          62.7702   91.6483   13.1163 H       1  UNL1        0.1567
     19 C          64.1802   91.3295   15.4889 C.3     1  UNL1        0.1118
     20 C          65.5768   91.8396   15.2912 C.ar    1  UNL1       -0.0101
     21 C          66.2502   92.6229   16.3788 C.ar    1  UNL1       -0.0036
     22 C          67.6469   93.1330   16.1811 C.ar    1  UNL1        0.0028
     23 C          68.3702   92.8597   14.8958 C.ar    1  UNL1        0.0369
     24 C          67.6968   92.0764   13.8081 C.ar    1  UNL1        0.1384
     25 C          66.3002   91.5664   14.0058 C.ar    1  UNL1        0.0331
     26 O          68.4202   91.8032   12.5227 O.3     1  UNL1       -0.4714
     27 C          67.7690   92.1302   11.2116 C.3     1  UNL1        0.2525
@<TRIPOS>BOND
     1    12    13    1
     2    13     6    1
     3     6     7   ar
     4     7     8   ar
     5     8     1    1
     6     1     2   ar
     7     2     3   ar
     8     3     4   ar
     9     4    15    1
    10    15    16   am
    11    16    17    2
    12    16    19    1
    13    19    20    1
    14    20    21   ar
    15    21    22   ar
    16    22    23   ar
    17    23    24   ar
    18    24    26    1
    19    26    27    1
    20    24    25   ar
    21     4     5   ar
    22     8     9   ar
    23     9    10   ar
    24    10    11   ar
    25    11     6   ar
    26     5     1   ar
    27    25    20   ar
    28    13    14    1
    29    15    18    1
@<TRIPOS>MOLECULE
*****
 27 29 0 0 0
SMALL
GASTEIGER

@<TRIPOS>ATOM
      1 C          63.2172   90.8613   11.5953 C.ar    1  UNL1        0.0899
      2 C          62.4352   89.8487   12.3782 C.ar    1  UNL1        0.0572
      3 S          61.2398   89.4545   11.5624 S.2     1  UNL1       -0.0508
      4 C          61.2830   90.2236   10.2752 C.ar    1  UNL1        0.1655
      5 N          62.5051   91.0930   10.2956 N.ar    1  UNL1       -0.2239
      6 C          66.5724   92.9783   11.4909 C.ar    1  UNL1        0.1286
      7 C          65.3015   92.3140   11.0514 C.ar    1  UNL1        0.0356
      8 C          64.4883   91.5257   12.0349 C.ar    1  UNL1        0.0225
      9 C          64.9460   91.4017   13.4579 C.ar    1  UNL1        0.0223
     10 C          66.2170   92.0660   13.8974 C.ar    1  UNL1        0.1003
     11 N          67.0302   92.8543   12.9139 N.ar    1  UNL1       -0.2294
     12 C          66.7716   94.9320    9.7899 C.3     1  UNL1        0.1096
     13 N          67.3857   93.7666   10.5074 N.pl3   1  UNL1       -0.3167
     14 H          68.3224   93.5192   10.3329 H       1  UNL1        0.1482
     15 N          60.2802   90.1382    9.1630 N.am    1  UNL1       -0.2639
     16 C          60.1467   88.8725    8.3691 C.2     1  UNL1        0.2320
     17 O          61.0160   87.6923    8.6874 O.2     1  UNL1       -0.2744
     18 H          59.7096   90.9128    8.9541 H       1  UNL1        0.1567
     19 C          59.1439   88.7871    7.2569 C.3     1  UNL1        0.1118
     20 C          59.0604   89.8833    6.2365 C.ar    1  UNL1       -0.0101
     21 C          57.7326   90.4932    5.8978 C.ar    1  UNL1       -0.0036
     22 C          57.6492   91.5895    4.8773 C.ar    1  UNL1        0.0028
     23 C          58.8937   92.0758    4.1956 C.ar    1  UNL1        0.0369
     24 C          60.2216   91.4659    4.5343 C.ar    1  UNL1        0.1384
     25 C          60.3050   90.3697    5.5547 C.ar    1  UNL1        0.0331
     26 O          61.4661   91.9522    3.8526 O.3     1  UNL1       -0.4714
     27 C          61.3655   92.7333    2.5760 C.3     1  UNL1        0.2525
@<TRIPOS>BOND
     1    12    13    1
     2    13     6    1
     3     6     7   ar
     4     7     8   ar
     5     8     1    1
     6     1     2   ar
     7     2     3   ar
     8     3     4   ar
     9     4    15    1
    10    15    16   am
    11    16    17    2
    12    16    19    1
    13    19    20    1
    14    20    21   ar
    15    21    22   ar
    16    22    23   ar
    17    23    24   ar
    18    24    26    1
    19    26    27    1
    20    24    25   ar
    21     4     5   ar
    22     8     9   ar
    23     9    10   ar
    24    10    11   ar
    25    11     6   ar
    26     5     1   ar
    27    25    20   ar
    28    13    14    1
    29    15    18    1
