@<TRIPOS>MOLECULE
*****
 45 48 0 0 0
SMALL
GASTEIGER

@<TRIPOS>ATOM
      1 C          62.0793   87.8715   10.9301 C.ar    1  UNL1        0.0759
      2 C          62.6465   86.6795   11.6423 C.ar    1  UNL1        0.0848
      3 N          63.5097   86.8705   12.8542 N.ar    1  UNL1       -0.2755
      4 C          63.8055   88.2536   13.3538 C.ar    1  UNL1        0.3341
      5 O          64.6686   88.4446   14.5656 O.2     1  UNL1       -0.2462
      6 N          63.2382   89.4456   12.6416 N.ar    1  UNL1       -0.2470
      7 C          62.3751   89.2546   11.4298 C.ar    1  UNL1        0.2657
      8 O          61.8077   90.4466   10.7175 O.2     1  UNL1       -0.2668
      9 C          60.4265   86.2096    7.7275 C.ar    1  UNL1        0.1660
     10 C          59.4900   87.2984    7.2946 C.ar    1  UNL1        0.0392
     11 C          59.4165   88.5782    8.0735 C.ar    1  UNL1        0.0033
     12 C          60.2796   88.7692    9.2853 C.ar    1  UNL1        0.0026
     13 C          61.2161   87.6805    9.7183 C.ar    1  UNL1        0.0366
     14 C          61.2896   86.4007    8.9393 C.ar    1  UNL1        0.1739
     15 F          62.2262   85.3119    9.3723 F       1  UNL1       -0.2010
     16 C          61.7621   84.5632    6.2258 C.3     1  UNL1        0.2526
     17 O          60.5000   84.9298    6.9486 O.3     1  UNL1       -0.4692
     18 C          64.0769   85.6785   13.5664 C.3     1  UNL1        0.1394
     19 C          63.4096   84.3411   13.4393 C.ar    1  UNL1        0.0319
     20 C          63.5440   83.5535   12.1698 C.ar    1  UNL1        0.1379
     21 F          64.3458   84.1032   11.0274 F       1  UNL1       -0.2044
     22 C          62.8766   82.2162   12.0427 C.ar    1  UNL1        0.0294
     23 C          62.0748   81.6665   13.1850 C.ar    1  UNL1        0.0022
     24 C          61.9404   82.4541   14.4544 C.ar    1  UNL1        0.0037
     25 C          62.6077   83.7915   14.5816 C.ar    1  UNL1        0.0714
     26 C          62.4733   84.5791   15.8511 C.3     1  UNL1        0.4184
     27 F          62.3387   85.3667   17.1205 F       1  UNL1       -0.1659
     28 F          63.8962   84.2584   16.2008 F       1  UNL1       -0.1659
     29 F          61.0503   84.8998   15.5013 F       1  UNL1       -0.1659
     30 C          63.5340   90.8287   13.1412 C.3     1  UNL1        0.1337
     31 C          64.8420   91.4828   12.8078 C.3     1  UNL1        0.1000
     32 C          65.8025   91.8403   13.9031 C.ar    1  UNL1       -0.0061
     33 C          65.2908   92.1414   15.2806 C.ar    1  UNL1       -0.0029
     34 C          66.2513   92.4990   16.3759 C.ar    1  UNL1       -0.0003
     35 C          67.7234   92.5553   16.0937 C.ar    1  UNL1       -0.0000
     36 C          68.2351   92.2542   14.7161 C.ar    1  UNL1       -0.0003
     37 C          67.2747   91.8966   13.6208 C.ar    1  UNL1       -0.0029
     38 N          65.1896   91.7794   11.3790 N.3     1  UNL1       -0.2935
     39 H          64.5822   91.1981   10.8015 H       1  UNL1        0.1236
     40 C          65.0752   93.1800   10.8546 C.3     1  UNL1        0.0692
     41 C          66.3063   94.0197   10.6837 C.3     1  UNL1        0.0230
     42 C          67.1882   93.8230    9.4863 C.3     1  UNL1        0.0431
     43 C          68.1573   92.6788    9.4484 C.2     1  UNL1        0.0504
     44 O          68.7414   92.2337    8.1405 O.co2   1  UNL1       -0.5492
     45 O          68.5422   91.9795   10.7184 O.co2   1  UNL1       -0.5492
@<TRIPOS>UNITY_ATOM_ATTR
44 1
charge -1
@<TRIPOS>BOND
     1    16    17    1
     2    17     9    1
     3     9    10   ar
     4    10    11   ar
     5    11    12   ar
     6    12    13   ar
     7    13     1    1
     8     1     2   ar
     9     2     3   ar
    10     3    18    1
    11    18    19    1
    12    19    20   ar
    13    20    21    1
    14    20    22   ar
    15    22    23   ar
    16    23    24   ar
    17    24    25   ar
    18    25    26    1
    19    26    27    1
    20    26    28    1
    21    26    29    1
    22     3     4   ar
    23     4     5    2
    24     4     6   ar
    25     6    30    1
    26    31    30    1
    27    31    38    1
    28    38    40    1
    29    40    41    1
    30    41    42    1
    31    42    43    1
    32    43    44   ar
    33    43    45   ar
    34    31    32    1
    35    32    33   ar
    36    33    34   ar
    37    34    35   ar
    38    35    36   ar
    39    36    37   ar
    40     6     7   ar
    41     7     8    2
    42    13    14   ar
    43    14    15    1
    44    14     9   ar
    45     7     1   ar
    46    25    19   ar
    47    37    32   ar
    48    38    39    1
@<TRIPOS>MOLECULE
*****
 45 48 0 0 0
SMALL
GASTEIGER

@<TRIPOS>ATOM
      1 C          61.9973   87.6823   10.9394 C.ar    1  UNL1        0.0759
      2 C          62.6426   86.4795   11.5614 C.ar    1  UNL1        0.0848
      3 N          63.4761   86.6315   12.7992 N.ar    1  UNL1       -0.2755
      4 C          63.6642   87.9862   13.4151 C.ar    1  UNL1        0.3341
      5 O          64.4977   88.1382   14.6529 O.2     1  UNL1       -0.2462
      6 N          63.0189   89.1890   12.7931 N.ar    1  UNL1       -0.2470
      7 C          62.1854   89.0370   11.5553 C.ar    1  UNL1        0.2657
      8 O          61.5400   90.2398   10.9333 O.2     1  UNL1       -0.2668
      9 C          60.4543   86.1423    7.6232 C.ar    1  UNL1        0.1660
     10 C          59.4969   87.2264    7.2259 C.ar    1  UNL1        0.0392
     11 C          59.3729   88.4625    8.0665 C.ar    1  UNL1        0.0033
     12 C          60.2063   88.6145    9.3044 C.ar    1  UNL1        0.0026
     13 C          61.1638   87.5304    9.7016 C.ar    1  UNL1        0.0366
     14 C          61.2878   86.2942    8.8610 C.ar    1  UNL1        0.1739
     15 F          62.2453   85.2100    9.2582 F       1  UNL1       -0.2010
     16 C          61.9026   84.5367    6.1828 C.3     1  UNL1        0.2526
     17 O          60.5783   84.9061    6.7826 O.3     1  UNL1       -0.4692
     18 C          64.1215   85.4287   13.4212 C.3     1  UNL1        0.1394
     19 C          63.4403   84.0939   13.3555 C.ar    1  UNL1        0.0319
     20 C          63.5609   83.2502   12.1212 C.ar    1  UNL1        0.1379
     21 F          64.3628   83.7413   10.9524 F       1  UNL1       -0.2044
     22 C          62.8797   81.9154   12.0555 C.ar    1  UNL1        0.0294
     23 C          62.0779   81.4243   13.2242 C.ar    1  UNL1        0.0022
     24 C          61.9573   82.2680   14.4585 C.ar    1  UNL1        0.0037
     25 C          62.6385   83.6028   14.5242 C.ar    1  UNL1        0.0714
     26 C          62.5178   84.4465   15.7586 C.3     1  UNL1        0.4184
     27 F          62.3971   85.2901   16.9929 F       1  UNL1       -0.1659
     28 F          63.9431   84.1375   16.1091 F       1  UNL1       -0.1659
     29 F          61.0925   84.7554   15.4081 F       1  UNL1       -0.1659
     30 C          63.2070   90.5437   13.4090 C.3     1  UNL1        0.1337
     31 C          64.5883   91.0989   13.5926 C.3     1  UNL1        0.1000
     32 C          65.2843   91.7723   12.4471 C.ar    1  UNL1       -0.0061
     33 C          66.7671   91.9933   12.4959 C.ar    1  UNL1       -0.0029
     34 C          67.4631   92.6668   11.3505 C.ar    1  UNL1       -0.0003
     35 C          66.6763   93.1192   10.1562 C.ar    1  UNL1       -0.0000
     36 C          65.1934   92.8983   10.1074 C.ar    1  UNL1       -0.0003
     37 C          64.4974   92.2248   11.2529 C.ar    1  UNL1       -0.0029
     38 N          65.2736   90.9806   14.9216 N.3     1  UNL1       -0.2935
     39 H          66.2394   90.7127   14.7321 H       1  UNL1        0.1236
     40 C          65.3251   92.1603   15.8466 C.3     1  UNL1        0.0692
     41 C          66.6274   92.5699   16.4680 C.3     1  UNL1        0.0230
     42 C          67.9190   92.0360   15.9234 C.3     1  UNL1        0.0431
     43 C          68.9486   92.9790   15.3751 C.2     1  UNL1        0.0504
     44 O          69.1360   94.3301   15.9990 O.co2   1  UNL1       -0.5492
     45 O          69.7909   92.5708   14.2028 O.co2   1  UNL1       -0.5492
@<TRIPOS>UNITY_ATOM_ATTR
44 1
charge -1
@<TRIPOS>BOND
     1    16    17    1
     2    17     9    1
     3     9    10   ar
     4    10    11   ar
     5    11    12   ar
     6    12    13   ar
     7    13     1    1
     8     1     2   ar
     9     2     3   ar
    10     3    18    1
    11    18    19    1
    12    19    20   ar
    13    20    21    1
    14    20    22   ar
    15    22    23   ar
    16    23    24   ar
    17    24    25   ar
    18    25    26    1
    19    26    27    1
    20    26    28    1
    21    26    29    1
    22     3     4   ar
    23     4     5    2
    24     4     6   ar
    25     6    30    1
    26    31    30    1
    27    31    38    1
    28    38    40    1
    29    40    41    1
    30    41    42    1
    31    42    43    1
    32    43    44   ar
    33    43    45   ar
    34    31    32    1
    35    32    33   ar
    36    33    34   ar
    37    34    35   ar
    38    35    36   ar
    39    36    37   ar
    40     6     7   ar
    41     7     8    2
    42    13    14   ar
    43    14    15    1
    44    14     9   ar
    45     7     1   ar
    46    25    19   ar
    47    37    32   ar
    48    38    39    1
@<TRIPOS>MOLECULE
*****
 45 48 0 0 0
SMALL
GASTEIGER

@<TRIPOS>ATOM
      1 C          61.9970   87.2213   11.1354 C.ar    1  UNL1        0.0759
      2 C          62.5998   85.9791   11.7214 C.ar    1  UNL1        0.0848
      3 N          63.4832   86.0724   12.9301 N.ar    1  UNL1       -0.2755
      4 C          63.7637   87.4079   13.5528 C.ar    1  UNL1        0.3341
      5 O          64.6470   87.5013   14.7615 O.2     1  UNL1       -0.2462
      6 N          63.1608   88.6502   12.9667 N.ar    1  UNL1       -0.2470
      7 C          62.2775   88.5569   11.7580 C.ar    1  UNL1        0.2657
      8 O          61.6746   89.7991   11.1719 O.2     1  UNL1       -0.2668
      9 C          60.6662   86.2278    7.5309 C.ar    1  UNL1        0.1660
     10 C          59.3470   86.9414    7.5092 C.ar    1  UNL1        0.0392
     11 C          58.9111   87.7484    8.6962 C.ar    1  UNL1        0.0033
     12 C          59.7944   87.8417    9.9049 C.ar    1  UNL1        0.0026
     13 C          61.1136   87.1280    9.9266 C.ar    1  UNL1        0.0366
     14 C          61.5495   86.3211    8.7396 C.ar    1  UNL1        0.1739
     15 F          62.8687   85.6075    8.7614 F       1  UNL1       -0.2010
     16 C          62.1308   84.3417    6.5076 C.3     1  UNL1        0.2526
     17 O          61.1020   85.4209    6.3439 O.3     1  UNL1       -0.4692
     18 C          64.0861   84.8302   13.5162 C.3     1  UNL1        0.1394
     19 C          63.2931   83.5575   13.5537 C.ar    1  UNL1        0.0319
     20 C          62.4425   83.2388   14.7473 C.ar    1  UNL1        0.1379
     21 F          62.3846   84.1928   15.9034 F       1  UNL1       -0.2044
     22 C          61.6495   81.9660   14.7849 C.ar    1  UNL1        0.0294
     23 C          61.7073   81.0120   13.6289 C.ar    1  UNL1        0.0022
     24 C          62.5580   81.3307   12.4353 C.ar    1  UNL1        0.0037
     25 C          63.3509   82.6035   12.3977 C.ar    1  UNL1        0.0714
     26 C          64.2016   82.9221   11.2040 C.3     1  UNL1        0.4184
     27 F          65.0524   83.2408   10.0105 F       1  UNL1       -0.1659
     28 F          62.9962   83.4534   10.4867 F       1  UNL1       -0.1659
     29 F          65.4071   82.3908   11.9214 F       1  UNL1       -0.1659
     30 C          63.4413   89.9857   13.5893 C.3     1  UNL1        0.1337
     31 C          64.5404   90.8502   13.0467 C.3     1  UNL1        0.1000
     32 C          65.5598   91.4390   13.9763 C.ar    1  UNL1       -0.0061
     33 C          65.1471   91.9152   15.3375 C.ar    1  UNL1       -0.0029
     34 C          66.1666   92.5040   16.2671 C.ar    1  UNL1       -0.0003
     35 C          67.5987   92.6164   15.8355 C.ar    1  UNL1       -0.0000
     36 C          68.0115   92.1402   14.4743 C.ar    1  UNL1       -0.0003
     37 C          66.9920   91.5514   13.5447 C.ar    1  UNL1       -0.0029
     38 N          64.6202   91.1261   11.5744 N.3     1  UNL1       -0.2935
     39 H          63.8258   90.6536   11.1429 H       1  UNL1        0.1236
     40 C          64.6067   92.5402   11.0745 C.3     1  UNL1        0.0692
     41 C          65.8878   93.2016   10.6607 C.3     1  UNL1        0.0230
     42 C          67.0253   92.3737   10.1402 C.3     1  UNL1        0.0431
     43 C          68.1016   93.0131    9.3139 C.2     1  UNL1        0.0504
     44 O          68.8422   92.2039    8.2910 O.co2   1  UNL1       -0.5492
     45 O          68.4372   94.4619    9.5106 O.co2   1  UNL1       -0.5492
@<TRIPOS>UNITY_ATOM_ATTR
44 1
charge -1
@<TRIPOS>BOND
     1    16    17    1
     2    17     9    1
     3     9    10   ar
     4    10    11   ar
     5    11    12   ar
     6    12    13   ar
     7    13     1    1
     8     1     2   ar
     9     2     3   ar
    10     3    18    1
    11    18    19    1
    12    19    20   ar
    13    20    21    1
    14    20    22   ar
    15    22    23   ar
    16    23    24   ar
    17    24    25   ar
    18    25    26    1
    19    26    27    1
    20    26    28    1
    21    26    29    1
    22     3     4   ar
    23     4     5    2
    24     4     6   ar
    25     6    30    1
    26    31    30    1
    27    31    38    1
    28    38    40    1
    29    40    41    1
    30    41    42    1
    31    42    43    1
    32    43    44   ar
    33    43    45   ar
    34    31    32    1
    35    32    33   ar
    36    33    34   ar
    37    34    35   ar
    38    35    36   ar
    39    36    37   ar
    40     6     7   ar
    41     7     8    2
    42    13    14   ar
    43    14    15    1
    44    14     9   ar
    45     7     1   ar
    46    25    19   ar
    47    37    32   ar
    48    38    39    1
@<TRIPOS>MOLECULE
*****
 45 48 0 0 0
SMALL
GASTEIGER

@<TRIPOS>ATOM
      1 C          62.0241   86.8462   10.9230 C.ar    1  UNL1        0.0759
      2 C          62.4212   85.6617   11.7531 C.ar    1  UNL1        0.0848
      3 N          63.3359   85.8420   12.9282 N.ar    1  UNL1       -0.2755
      4 C          63.8535   87.2070   13.2731 C.ar    1  UNL1        0.3341
      5 O          64.7682   87.3874   14.4481 O.2     1  UNL1       -0.2462
      6 N          63.4563   88.3916   12.4430 N.ar    1  UNL1       -0.2470
      7 C          62.5416   88.2112   11.2680 C.ar    1  UNL1        0.2657
      8 O          62.1445   89.3958   10.4378 O.2     1  UNL1       -0.2668
      9 C          60.5836   85.5654    7.4539 C.ar    1  UNL1        0.1660
     10 C          59.2800   86.3051    7.3978 C.ar    1  UNL1        0.0392
     11 C          58.8910   87.2252    8.5168 C.ar    1  UNL1        0.0033
     12 C          59.8056   87.4056    9.6918 C.ar    1  UNL1        0.0026
     13 C          61.1093   86.6659    9.7479 C.ar    1  UNL1        0.0366
     14 C          61.4983   85.7458    8.6289 C.ar    1  UNL1        0.1739
     15 F          62.8021   85.0060    8.6851 F       1  UNL1       -0.2010
     16 C          62.4099   84.5347    5.9201 C.3     1  UNL1        0.2526
     17 O          60.9727   84.6453    6.3349 O.3     1  UNL1       -0.4692
     18 C          63.7331   84.6575   13.7582 C.3     1  UNL1        0.1394
     19 C          63.0559   83.3352   13.5506 C.ar    1  UNL1        0.0319
     20 C          62.1029   82.8103   14.5831 C.ar    1  UNL1        0.1379
     21 F          61.8269   83.6076   15.8233 F       1  UNL1       -0.2044
     22 C          61.4257   81.4880   14.3754 C.ar    1  UNL1        0.0294
     23 C          61.7016   80.6907   13.1352 C.ar    1  UNL1        0.0022
     24 C          62.6547   81.2156   12.1027 C.ar    1  UNL1        0.0037
     25 C          63.3318   82.5379   12.3104 C.ar    1  UNL1        0.0714
     26 C          64.2849   83.0628   11.2778 C.3     1  UNL1        0.4184
     27 F          65.2379   83.5877   10.2452 F       1  UNL1       -0.1659
     28 F          65.3314   83.2457   12.3367 F       1  UNL1       -0.1659
     29 F          63.2384   82.8799   10.2189 F       1  UNL1       -0.1659
     30 C          63.9739   89.7566   12.7879 C.3     1  UNL1        0.1337
     31 C          63.7220   90.3320   14.1500 C.3     1  UNL1        0.1000
     32 C          64.8016   91.1035   14.8497 C.ar    1  UNL1       -0.0061
     33 C          64.4886   91.8599   16.1066 C.ar    1  UNL1       -0.0029
     34 C          65.5681   92.6313   16.8062 C.ar    1  UNL1       -0.0003
     35 C          66.9607   92.6463   16.2489 C.ar    1  UNL1       -0.0000
     36 C          67.2737   91.8899   14.9920 C.ar    1  UNL1       -0.0003
     37 C          66.1942   91.1184   14.2924 C.ar    1  UNL1       -0.0029
     38 N          62.3906   90.1361   14.8126 N.3     1  UNL1       -0.2935
     39 H          61.7107   89.9835   14.0677 H       1  UNL1        0.1236
     40 C          62.2024   89.0267   15.8045 C.3     1  UNL1        0.0692
     41 C          63.0594   88.9668   17.0341 C.3     1  UNL1        0.0230
     42 C          63.0376   87.7454   17.9047 C.3     1  UNL1        0.0431
     43 C          62.6796   86.4123   17.3178 C.2     1  UNL1        0.0504
     44 O          61.2391   86.0328   17.1417 O.co2   1  UNL1       -0.5492
     45 O          63.7620   85.4586   16.9068 O.co2   1  UNL1       -0.5492
@<TRIPOS>UNITY_ATOM_ATTR
44 1
charge -1
@<TRIPOS>BOND
     1    16    17    1
     2    17     9    1
     3     9    10   ar
     4    10    11   ar
     5    11    12   ar
     6    12    13   ar
     7    13     1    1
     8     1     2   ar
     9     2     3   ar
    10     3    18    1
    11    18    19    1
    12    19    20   ar
    13    20    21    1
    14    20    22   ar
    15    22    23   ar
    16    23    24   ar
    17    24    25   ar
    18    25    26    1
    19    26    27    1
    20    26    28    1
    21    26    29    1
    22     3     4   ar
    23     4     5    2
    24     4     6   ar
    25     6    30    1
    26    31    30    1
    27    31    38    1
    28    38    40    1
    29    40    41    1
    30    41    42    1
    31    42    43    1
    32    43    44   ar
    33    43    45   ar
    34    31    32    1
    35    32    33   ar
    36    33    34   ar
    37    34    35   ar
    38    35    36   ar
    39    36    37   ar
    40     6     7   ar
    41     7     8    2
    42    13    14   ar
    43    14    15    1
    44    14     9   ar
    45     7     1   ar
    46    25    19   ar
    47    37    32   ar
    48    38    39    1
@<TRIPOS>MOLECULE
*****
 45 48 0 0 0
SMALL
GASTEIGER

@<TRIPOS>ATOM
      1 C          63.3239   88.2466   13.4799 C.ar    1  UNL1        0.0759
      2 C          64.0400   86.9410   13.6602 C.ar    1  UNL1        0.0848
      3 N          63.6170   85.7382   12.8699 N.ar    1  UNL1       -0.2755
      4 C          62.4779   85.8411   11.8994 C.ar    1  UNL1        0.3341
      5 O          62.0549   84.6384   11.1092 O.2     1  UNL1       -0.2462
      6 N          61.7618   87.1468   11.7192 N.ar    1  UNL1       -0.2470
      7 C          62.1848   88.3495   12.5094 C.ar    1  UNL1        0.2657
      8 O          61.4687   89.6552   12.3291 O.2     1  UNL1       -0.2668
      9 C          64.8741   91.7877   14.3786 C.ar    1  UNL1        0.1660
     10 C          64.5928   91.8550   15.8504 C.ar    1  UNL1        0.0392
     11 C          63.8886   90.7194   16.5321 C.ar    1  UNL1        0.0033
     12 C          63.4656   89.5167   15.7419 C.ar    1  UNL1        0.0026
     13 C          63.7469   89.4494   14.2701 C.ar    1  UNL1        0.0366
     14 C          64.4511   90.5849   13.5885 C.ar    1  UNL1        0.1739
     15 F          64.7324   90.5176   12.1165 F       1  UNL1       -0.2010
     16 C          66.7791   93.5538   14.3376 C.3     1  UNL1        0.2526
     17 O          65.5783   92.9232   13.6969 O.3     1  UNL1       -0.4692
     18 C          64.3331   84.4326   13.0502 C.3     1  UNL1        0.1394
     19 C          63.5513   83.1570   13.1581 C.ar    1  UNL1        0.0319
     20 C          63.6377   82.1299   12.0684 C.ar    1  UNL1        0.1379
     21 F          64.5059   82.3783   10.8707 F       1  UNL1       -0.2044
     22 C          62.8559   80.8543   12.1764 C.ar    1  UNL1        0.0294
     23 C          61.9876   80.6059   13.3740 C.ar    1  UNL1        0.0022
     24 C          61.9012   81.6330   14.4637 C.ar    1  UNL1        0.0037
     25 C          62.6830   82.9086   14.3558 C.ar    1  UNL1        0.0714
     26 C          62.5966   83.9357   15.4456 C.3     1  UNL1        0.4184
     27 F          62.5101   84.9629   16.5353 F       1  UNL1       -0.1659
     28 F          63.9049   83.4566   16.0011 F       1  UNL1       -0.1659
     29 F          61.2883   84.4149   14.8901 F       1  UNL1       -0.1659
     30 C          60.6227   87.2497   10.7487 C.3     1  UNL1        0.1337
     31 C          60.8916   87.5666    9.3074 C.3     1  UNL1        0.1000
     32 C          61.2895   86.4733    8.3607 C.ar    1  UNL1       -0.0061
     33 C          62.7056   85.9794    8.3379 C.ar    1  UNL1       -0.0029
     34 C          63.1035   84.8861    7.3912 C.ar    1  UNL1       -0.0003
     35 C          62.0853   84.2867    6.4672 C.ar    1  UNL1       -0.0000
     36 C          60.6691   84.7806    6.4899 C.ar    1  UNL1       -0.0003
     37 C          60.2712   85.8739    7.4366 C.ar    1  UNL1       -0.0029
     38 N          60.7626   88.9769    8.8129 N.3     1  UNL1       -0.2935
     39 H          61.5162   89.1235    8.1413 H       1  UNL1        0.1236
     40 C          59.4957   89.4251    8.1467 C.3     1  UNL1        0.0692
     41 C          59.3248   89.2521    6.6666 C.3     1  UNL1        0.0230
     42 C          59.6600   90.3799    5.7360 C.3     1  UNL1        0.0431
     43 C          58.5787   91.3006    5.2534 C.2     1  UNL1        0.0504
     44 O          58.9383   92.5885    4.5737 O.co2   1  UNL1       -0.5492
     45 O          57.1377   90.9335    5.4504 O.co2   1  UNL1       -0.5492
@<TRIPOS>UNITY_ATOM_ATTR
44 1
charge -1
@<TRIPOS>BOND
     1    16    17    1
     2    17     9    1
     3     9    10   ar
     4    10    11   ar
     5    11    12   ar
     6    12    13   ar
     7    13     1    1
     8     1     2   ar
     9     2     3   ar
    10     3    18    1
    11    18    19    1
    12    19    20   ar
    13    20    21    1
    14    20    22   ar
    15    22    23   ar
    16    23    24   ar
    17    24    25   ar
    18    25    26    1
    19    26    27    1
    20    26    28    1
    21    26    29    1
    22     3     4   ar
    23     4     5    2
    24     4     6   ar
    25     6    30    1
    26    31    30    1
    27    31    38    1
    28    38    40    1
    29    40    41    1
    30    41    42    1
    31    42    43    1
    32    43    44   ar
    33    43    45   ar
    34    31    32    1
    35    32    33   ar
    36    33    34   ar
    37    34    35   ar
    38    35    36   ar
    39    36    37   ar
    40     6     7   ar
    41     7     8    2
    42    13    14   ar
    43    14    15    1
    44    14     9   ar
    45     7     1   ar
    46    25    19   ar
    47    37    32   ar
    48    38    39    1
@<TRIPOS>MOLECULE
*****
 45 48 0 0 0
SMALL
GASTEIGER

@<TRIPOS>ATOM
      1 C          63.2559   88.3524   13.4382 C.ar    1  UNL1        0.0759
      2 C          63.9277   87.0243   13.6248 C.ar    1  UNL1        0.0848
      3 N          63.4650   85.8328   12.8395 N.ar    1  UNL1       -0.2755
      4 C          62.3306   85.9696   11.8678 C.ar    1  UNL1        0.3341
      5 O          61.8679   84.7783   11.0826 O.2     1  UNL1       -0.2462
      6 N          61.6588   87.2978   11.6813 N.ar    1  UNL1       -0.2470
      7 C          62.1215   88.4891   12.4665 C.ar    1  UNL1        0.2657
      8 O          61.4497   89.8173   12.2799 O.2     1  UNL1       -0.2668
      9 C          64.8978   91.8570   14.3170 C.ar    1  UNL1        0.1660
     10 C          64.6440   91.9266   15.7937 C.ar    1  UNL1        0.0392
     11 C          63.9275   90.8048   16.4853 C.ar    1  UNL1        0.0033
     12 C          63.4648   89.6134   15.7001 C.ar    1  UNL1        0.0026
     13 C          63.7186   89.5438   14.2234 C.ar    1  UNL1        0.0366
     14 C          64.4351   90.6656   13.5319 C.ar    1  UNL1        0.1739
     15 F          64.6889   90.5959   12.0551 F       1  UNL1       -0.2010
     16 C          66.7981   93.6281   14.2785 C.3     1  UNL1        0.2526
     17 O          65.6142   92.9788   13.6254 O.3     1  UNL1       -0.4692
     18 C          64.1368   84.5048   13.0261 C.3     1  UNL1        0.1394
     19 C          63.3114   83.2682   13.2253 C.ar    1  UNL1        0.0319
     20 C          62.4809   83.1123   14.4646 C.ar    1  UNL1        0.1379
     21 F          62.4757   84.1931   15.5048 F       1  UNL1       -0.2044
     22 C          61.6556   81.8757   14.6637 C.ar    1  UNL1        0.0294
     23 C          61.6607   80.7950   13.6236 C.ar    1  UNL1        0.0022
     24 C          62.4913   80.9509   12.3843 C.ar    1  UNL1        0.0037
     25 C          63.3166   82.1874   12.1851 C.ar    1  UNL1        0.0714
     26 C          64.1472   82.3432   10.9457 C.3     1  UNL1        0.4184
     27 F          64.9776   82.4990    9.7064 F       1  UNL1       -0.1659
     28 F          65.2575   82.9329   11.7639 F       1  UNL1       -0.1659
     29 F          63.0368   81.7536   10.1276 F       1  UNL1       -0.1659
     30 C          60.5243   87.4345   10.7095 C.3     1  UNL1        0.1337
     31 C          60.8062   87.6929    9.2591 C.3     1  UNL1        0.1000
     32 C          61.2494   86.5695    8.3695 C.ar    1  UNL1       -0.0061
     33 C          60.2726   85.9269    7.4297 C.ar    1  UNL1       -0.0029
     34 C          60.7158   84.8035    6.5401 C.ar    1  UNL1       -0.0003
     35 C          62.1357   84.3226    6.5902 C.ar    1  UNL1       -0.0000
     36 C          63.1125   84.9651    7.5299 C.ar    1  UNL1       -0.0003
     37 C          62.6694   86.0886    8.4196 C.ar    1  UNL1       -0.0029
     38 N          60.6448   89.0748    8.6983 N.3     1  UNL1       -0.2935
     39 H          61.4135   89.2183    8.0433 H       1  UNL1        0.1236
     40 C          59.3847   89.4485    7.9756 C.3     1  UNL1        0.0692
     41 C          59.3198   89.3483    6.4804 C.3     1  UNL1        0.0230
     42 C          59.6696   90.5357    5.6332 C.3     1  UNL1        0.0431
     43 C          58.5845   91.4290    5.1092 C.2     1  UNL1        0.0504
     44 O          57.1459   91.0937    5.3697 O.co2   1  UNL1       -0.5492
     45 O          58.9381   92.6577    4.3247 O.co2   1  UNL1       -0.5492
@<TRIPOS>UNITY_ATOM_ATTR
44 1
charge -1
@<TRIPOS>BOND
     1    16    17    1
     2    17     9    1
     3     9    10   ar
     4    10    11   ar
     5    11    12   ar
     6    12    13   ar
     7    13     1    1
     8     1     2   ar
     9     2     3   ar
    10     3    18    1
    11    18    19    1
    12    19    20   ar
    13    20    21    1
    14    20    22   ar
    15    22    23   ar
    16    23    24   ar
    17    24    25   ar
    18    25    26    1
    19    26    27    1
    20    26    28    1
    21    26    29    1
    22     3     4   ar
    23     4     5    2
    24     4     6   ar
    25     6    30    1
    26    31    30    1
    27    31    38    1
    28    38    40    1
    29    40    41    1
    30    41    42    1
    31    42    43    1
    32    43    44   ar
    33    43    45   ar
    34    31    32    1
    35    32    33   ar
    36    33    34   ar
    37    34    35   ar
    38    35    36   ar
    39    36    37   ar
    40     6     7   ar
    41     7     8    2
    42    13    14   ar
    43    14    15    1
    44    14     9   ar
    45     7     1   ar
    46    25    19   ar
    47    37    32   ar
    48    38    39    1
@<TRIPOS>MOLECULE
*****
 45 48 0 0 0
SMALL
GASTEIGER

@<TRIPOS>ATOM
      1 C          63.7988   88.9156   14.0280 C.ar    1  UNL1        0.0759
      2 C          64.4531   90.2208   14.3720 C.ar    1  UNL1        0.0848
      3 N          64.6340   91.2704   13.3157 N.ar    1  UNL1       -0.2755
      4 C          64.1607   91.0148   11.9155 C.ar    1  UNL1        0.3341
      5 O          64.3416   92.0644   10.8593 O.2     1  UNL1       -0.2462
      6 N          63.5064   89.7095   11.5715 N.ar    1  UNL1       -0.2470
      7 C          63.3255   88.6600   12.6277 C.ar    1  UNL1        0.2657
      8 O          62.6712   87.3547   12.2838 O.2     1  UNL1       -0.2668
      9 C          63.8418   85.3983   15.8656 C.ar    1  UNL1        0.1660
     10 C          63.2560   85.7666   17.1965 C.ar    1  UNL1        0.0392
     11 C          62.8512   87.1846   17.4712 C.ar    1  UNL1        0.0033
     12 C          63.0321   88.2342   16.4150 C.ar    1  UNL1        0.0026
     13 C          63.6179   87.8659   15.0842 C.ar    1  UNL1        0.0366
     14 C          64.0227   86.4479   14.8095 C.ar    1  UNL1        0.1739
     15 F          64.6085   86.0796   13.4786 F       1  UNL1       -0.2010
     16 C          63.4476   83.1438   14.6361 C.3     1  UNL1        0.2526
     17 O          64.2466   83.9803   15.5909 O.3     1  UNL1       -0.4692
     18 C          65.2883   92.5756   13.6598 C.3     1  UNL1        0.1394
     19 C          66.5946   92.5884   14.3969 C.ar    1  UNL1        0.0319
     20 C          66.6116   92.7259   15.8905 C.ar    1  UNL1        0.1379
     21 F          65.3222   92.8506   16.6470 F       1  UNL1       -0.2044
     22 C          67.9179   92.7387   16.6277 C.ar    1  UNL1        0.0294
     23 C          69.2071   92.6141   15.8713 C.ar    1  UNL1        0.0022
     24 C          69.1901   92.4766   14.3777 C.ar    1  UNL1        0.0037
     25 C          67.8839   92.4638   13.6406 C.ar    1  UNL1        0.0714
     26 C          67.8669   92.3263   12.1469 C.3     1  UNL1        0.4184
     27 F          67.8500   92.1888   10.6534 F       1  UNL1       -0.1659
     28 F          66.9796   93.5315   12.0460 F       1  UNL1       -0.1659
     29 F          68.7542   91.1211   12.2478 F       1  UNL1       -0.1659
     30 C          63.0330   89.4539   10.1713 C.3     1  UNL1        0.1337
     31 C          61.5895   89.6582    9.8186 C.3     1  UNL1        0.1000
     32 C          60.8367   88.5855    9.0888 C.ar    1  UNL1       -0.0061
     33 C          59.7135   88.9533    8.1652 C.ar    1  UNL1       -0.0029
     34 C          58.9607   87.8806    7.4354 C.ar    1  UNL1       -0.0003
     35 C          59.3311   86.4400    7.6293 C.ar    1  UNL1       -0.0000
     36 C          60.4543   86.0721    8.5530 C.ar    1  UNL1       -0.0003
     37 C          61.2071   87.1449    9.2827 C.ar    1  UNL1       -0.0029
     38 N          60.8987   90.9352   10.1956 N.3     1  UNL1       -0.2935
     39 H          60.4081   91.2615    9.3630 H       1  UNL1        0.1236
     40 C          59.9029   90.9464   11.3172 C.3     1  UNL1        0.0692
     41 C          59.8166   89.7790   12.2552 C.3     1  UNL1        0.0230
     42 C          58.6392   88.8517   12.1923 C.3     1  UNL1        0.0431
     43 C          57.8680   88.5332   13.4387 C.2     1  UNL1        0.0504
     44 O          58.5579   88.5430   14.7706 O.co2   1  UNL1       -0.5492
     45 O          56.4068   88.2048   13.3533 O.co2   1  UNL1       -0.5492
@<TRIPOS>UNITY_ATOM_ATTR
44 1
charge -1
@<TRIPOS>BOND
     1    16    17    1
     2    17     9    1
     3     9    10   ar
     4    10    11   ar
     5    11    12   ar
     6    12    13   ar
     7    13     1    1
     8     1     2   ar
     9     2     3   ar
    10     3    18    1
    11    18    19    1
    12    19    20   ar
    13    20    21    1
    14    20    22   ar
    15    22    23   ar
    16    23    24   ar
    17    24    25   ar
    18    25    26    1
    19    26    27    1
    20    26    28    1
    21    26    29    1
    22     3     4   ar
    23     4     5    2
    24     4     6   ar
    25     6    30    1
    26    31    30    1
    27    31    38    1
    28    38    40    1
    29    40    41    1
    30    41    42    1
    31    42    43    1
    32    43    44   ar
    33    43    45   ar
    34    31    32    1
    35    32    33   ar
    36    33    34   ar
    37    34    35   ar
    38    35    36   ar
    39    36    37   ar
    40     6     7   ar
    41     7     8    2
    42    13    14   ar
    43    14    15    1
    44    14     9   ar
    45     7     1   ar
    46    25    19   ar
    47    37    32   ar
    48    38    39    1
@<TRIPOS>MOLECULE
*****
 45 48 0 0 0
SMALL
GASTEIGER

@<TRIPOS>ATOM
      1 C          63.8480   89.5675   13.7756 C.ar    1  UNL1        0.0759
      2 C          63.1375   89.2976   12.4824 C.ar    1  UNL1        0.0848
      3 N          63.3208   90.2254   11.3181 N.ar    1  UNL1       -0.2755
      4 C          64.2147   91.4231   11.4470 C.ar    1  UNL1        0.3341
      5 O          64.3980   92.3509   10.2827 O.2     1  UNL1       -0.2462
      6 N          64.9252   91.6930   12.7402 N.ar    1  UNL1       -0.2470
      7 C          64.7419   90.7652   13.9045 C.ar    1  UNL1        0.2657
      8 O          65.4524   91.0350   15.1977 O.2     1  UNL1       -0.2668
      9 C          63.7681   86.2477   15.9488 C.ar    1  UNL1        0.1660
     10 C          63.2982   86.7840   17.2685 C.ar    1  UNL1        0.0392
     11 C          63.0116   88.2482   17.4238 C.ar    1  UNL1        0.0033
     12 C          63.1949   89.1760   16.2596 C.ar    1  UNL1        0.0026
     13 C          63.6648   88.6396   14.9399 C.ar    1  UNL1        0.0366
     14 C          63.9513   87.1755   14.7845 C.ar    1  UNL1        0.1739
     15 F          64.4212   86.6392   13.4648 F       1  UNL1       -0.2010
     16 C          63.5757   84.0507   14.5754 C.3     1  UNL1        0.2526
     17 O          64.0546   84.7835   15.7934 O.3     1  UNL1       -0.4692
     18 C          62.6103   89.9555   10.0249 C.3     1  UNL1        0.1394
     19 C          61.7262   88.7510    9.8921 C.ar    1  UNL1        0.0319
     20 C          62.2614   87.4920    9.2771 C.ar    1  UNL1        0.1379
     21 F          63.6808   87.4373    8.7948 F       1  UNL1       -0.2044
     22 C          61.3773   86.2875    9.1443 C.ar    1  UNL1        0.0294
     23 C          59.9580   86.3421    9.6265 C.ar    1  UNL1        0.0022
     24 C          59.4228   87.6012   10.2415 C.ar    1  UNL1        0.0037
     25 C          60.3069   88.8056   10.3743 C.ar    1  UNL1        0.0714
     26 C          59.7717   90.0647   10.9894 C.3     1  UNL1        0.4184
     27 F          59.2365   91.3238   11.6045 F       1  UNL1       -0.1659
     28 F          59.6145   90.6651    9.6238 F       1  UNL1       -0.1659
     29 F          59.9289   89.4644   12.3550 F       1  UNL1       -0.1659
     30 C          65.8190   92.8906   12.8691 C.3     1  UNL1        0.1337
     31 C          66.8796   93.1492   11.8404 C.3     1  UNL1        0.1000
     32 C          66.8164   94.3848   10.9923 C.ar    1  UNL1       -0.0061
     33 C          67.4665   94.4007    9.6406 C.ar    1  UNL1       -0.0029
     34 C          67.4034   95.6363    8.7924 C.ar    1  UNL1       -0.0003
     35 C          66.6901   96.8560    9.2960 C.ar    1  UNL1       -0.0000
     36 C          66.0400   96.8401   10.6477 C.ar    1  UNL1       -0.0003
     37 C          66.1031   95.6045   11.4959 C.ar    1  UNL1       -0.0029
     38 N          68.0033   92.1721   11.6598 N.3     1  UNL1       -0.2935
     39 H          68.7494   92.6683   11.1723 H       1  UNL1        0.1236
     40 C          68.6281   91.5180   12.8563 C.3     1  UNL1        0.0692
     41 C          69.1741   92.3597   13.9714 C.3     1  UNL1        0.0230
     42 C          68.6663   92.1723   15.3704 C.3     1  UNL1        0.0431
     43 C          68.0350   93.3212   16.0993 C.2     1  UNL1        0.0504
     44 O          68.7823   94.6125   16.2547 O.co2   1  UNL1       -0.5492
     45 O          66.6562   93.1789   16.6729 O.co2   1  UNL1       -0.5492
@<TRIPOS>UNITY_ATOM_ATTR
44 1
charge -1
@<TRIPOS>BOND
     1    16    17    1
     2    17     9    1
     3     9    10   ar
     4    10    11   ar
     5    11    12   ar
     6    12    13   ar
     7    13     1    1
     8     1     2   ar
     9     2     3   ar
    10     3    18    1
    11    18    19    1
    12    19    20   ar
    13    20    21    1
    14    20    22   ar
    15    22    23   ar
    16    23    24   ar
    17    24    25   ar
    18    25    26    1
    19    26    27    1
    20    26    28    1
    21    26    29    1
    22     3     4   ar
    23     4     5    2
    24     4     6   ar
    25     6    30    1
    26    31    30    1
    27    31    38    1
    28    38    40    1
    29    40    41    1
    30    41    42    1
    31    42    43    1
    32    43    44   ar
    33    43    45   ar
    34    31    32    1
    35    32    33   ar
    36    33    34   ar
    37    34    35   ar
    38    35    36   ar
    39    36    37   ar
    40     6     7   ar
    41     7     8    2
    42    13    14   ar
    43    14    15    1
    44    14     9   ar
    45     7     1   ar
    46    25    19   ar
    47    37    32   ar
    48    38    39    1
@<TRIPOS>MOLECULE
*****
 45 48 0 0 0
SMALL
GASTEIGER

@<TRIPOS>ATOM
      1 C          63.0583   87.3148   12.6363 C.ar    1  UNL1        0.0759
      2 C          63.6856   88.6773   12.6268 C.ar    1  UNL1        0.0848
      3 N          63.0561   89.7874   11.8384 N.ar    1  UNL1       -0.2755
      4 C          61.7992   89.5349   11.0596 C.ar    1  UNL1        0.3341
      5 O          61.1697   90.6449   10.2712 O.2     1  UNL1       -0.2462
      6 N          61.1719   88.1724   11.0692 N.ar    1  UNL1       -0.2470
      7 C          61.8014   87.0624   11.8575 C.ar    1  UNL1        0.2657
      8 O          61.1741   85.6998   11.8671 O.2     1  UNL1       -0.2668
      9 C          64.4691   83.7333   13.6019 C.ar    1  UNL1        0.1660
     10 C          64.9468   83.9847   15.0013 C.ar    1  UNL1        0.0392
     11 C          64.7950   85.3461   15.6125 C.ar    1  UNL1        0.0033
     12 C          64.1655   86.4561   14.8242 C.ar    1  UNL1        0.0026
     13 C          63.6878   86.2048   13.4247 C.ar    1  UNL1        0.0366
     14 C          63.8396   84.8433   12.8136 C.ar    1  UNL1        0.1739
     15 F          63.3618   84.5920   11.4140 F       1  UNL1       -0.2010
     16 C          63.4443   81.4437   12.9253 C.3     1  UNL1        0.2526
     17 O          64.6208   82.3719   12.9907 O.3     1  UNL1       -0.4692
     18 C          63.6834   91.1498   11.8289 C.3     1  UNL1        0.1394
     19 C          64.5922   91.5649   12.9477 C.ar    1  UNL1        0.0319
     20 C          64.2411   91.2227   14.3653 C.ar    1  UNL1        0.1379
     21 F          62.9813   90.4653   14.6641 F       1  UNL1       -0.2044
     22 C          65.1499   91.6378   15.4842 C.ar    1  UNL1        0.0294
     23 C          66.4097   92.3952   15.1854 C.ar    1  UNL1        0.0022
     24 C          66.7607   92.7374   13.7678 C.ar    1  UNL1        0.0037
     25 C          65.8519   92.3223   12.6490 C.ar    1  UNL1        0.0714
     26 C          66.2030   92.6646   11.2313 C.3     1  UNL1        0.4184
     27 F          66.5541   93.0068    9.8137 F       1  UNL1       -0.1659
     28 F          65.0915   93.6712   11.1990 F       1  UNL1       -0.1659
     29 F          67.3146   91.6579   11.2636 F       1  UNL1       -0.1659
     30 C          59.9150   87.9199   10.2903 C.3     1  UNL1        0.1337
     31 C          59.9844   87.6817    8.8110 C.3     1  UNL1        0.1000
     32 C          60.8940   86.6218    8.2639 C.ar    1  UNL1       -0.0061
     33 C          60.4106   85.7055    7.1792 C.ar    1  UNL1       -0.0029
     34 C          61.3202   84.6457    6.6320 C.ar    1  UNL1       -0.0003
     35 C          62.7131   84.5021    7.1696 C.ar    1  UNL1       -0.0000
     36 C          63.1966   85.4185    8.2544 C.ar    1  UNL1       -0.0003
     37 C          62.2870   86.4783    8.8015 C.ar    1  UNL1       -0.0029
     38 N          59.1442   88.5034    7.8788 N.3     1  UNL1       -0.2935
     39 H          58.4387   88.9680    8.4504 H       1  UNL1        0.1236
     40 C          59.7825   89.5640    7.0317 C.3     1  UNL1        0.0692
     41 C          59.0917   90.0503    5.7922 C.3     1  UNL1        0.0230
     42 C          59.7179   91.1289    4.9587 C.3     1  UNL1        0.0431
     43 C          58.8537   92.1538    4.2859 C.2     1  UNL1        0.0504
     44 O          57.3984   92.2537    4.6353 O.co2   1  UNL1       -0.5492
     45 O          59.4448   93.0789    3.2637 O.co2   1  UNL1       -0.5492
@<TRIPOS>UNITY_ATOM_ATTR
44 1
charge -1
@<TRIPOS>BOND
     1    16    17    1
     2    17     9    1
     3     9    10   ar
     4    10    11   ar
     5    11    12   ar
     6    12    13   ar
     7    13     1    1
     8     1     2   ar
     9     2     3   ar
    10     3    18    1
    11    18    19    1
    12    19    20   ar
    13    20    21    1
    14    20    22   ar
    15    22    23   ar
    16    23    24   ar
    17    24    25   ar
    18    25    26    1
    19    26    27    1
    20    26    28    1
    21    26    29    1
    22     3     4   ar
    23     4     5    2
    24     4     6   ar
    25     6    30    1
    26    31    30    1
    27    31    38    1
    28    38    40    1
    29    40    41    1
    30    41    42    1
    31    42    43    1
    32    43    44   ar
    33    43    45   ar
    34    31    32    1
    35    32    33   ar
    36    33    34   ar
    37    34    35   ar
    38    35    36   ar
    39    36    37   ar
    40     6     7   ar
    41     7     8    2
    42    13    14   ar
    43    14    15    1
    44    14     9   ar
    45     7     1   ar
    46    25    19   ar
    47    37    32   ar
    48    38    39    1
