@<TRIPOS>MOLECULE
*****
 44 47 0 0 0
SMALL
GASTEIGER

@<TRIPOS>ATOM
      1 C          63.6598   85.6685   13.9802 C.ar    1  UNL1        0.0410
      2 C          63.0778   85.0423   12.7476 C.ar    1  UNL1        0.0667
      3 C          62.8540   86.1283   11.7374 C.ar    1  UNL1        0.0212
      4 C          63.2977   87.4257   12.3456 C.ar    1  UNL1        0.0597
      5 N          63.7957   87.1416   13.7317 N.ar    1  UNL1       -0.3304
      6 C          63.2515   88.7710   11.6839 C.ar    1  UNL1        0.0159
      7 C          62.5249   88.9424   10.3828 C.ar    1  UNL1        0.0037
      8 C          62.4787   90.2876    9.7211 C.ar    1  UNL1        0.0297
      9 C          63.1590   91.4617   10.3604 C.ar    1  UNL1        0.1401
     10 F          63.1128   92.8071    9.6986 F       1  UNL1       -0.2042
     11 C          63.8857   91.2904   11.6615 C.ar    1  UNL1        0.0297
     12 C          63.9318   89.9450   12.3231 C.ar    1  UNL1        0.0037
     13 C          62.2863   85.9484   10.3608 C.ar    1  UNL1        0.0016
     14 C          60.8787   86.3762   10.0681 C.ar    1  UNL1        0.0000
     15 C          60.3110   86.1962    8.6914 C.ar    1  UNL1        0.0000
     16 C          61.1508   85.5885    7.6073 C.ar    1  UNL1        0.0000
     17 C          62.5584   85.1607    7.8999 C.ar    1  UNL1        0.0000
     18 C          63.1261   85.3406    9.2766 C.ar    1  UNL1        0.0000
     19 C          62.7731   83.5857   12.5585 C.2     1  UNL1        0.2506
     20 O          61.7973   82.8995   13.4678 O.2     1  UNL1       -0.2698
     21 N          63.4442   82.8156   11.4602 N.am    1  UNL1       -0.2803
     22 H          64.0847   83.2660   10.8634 H       1  UNL1        0.1552
     23 C          63.1396   81.3590   11.2711 C.ar    1  UNL1        0.0505
     24 C          62.8313   80.4969   12.4592 C.ar    1  UNL1        0.0147
     25 C          62.5266   79.0404   12.2701 C.ar    1  UNL1        0.0013
     26 C          62.5302   78.4460   10.8929 C.ar    1  UNL1        0.0001
     27 C          62.8385   79.3082    9.7048 C.ar    1  UNL1        0.0013
     28 C          63.1432   80.7646    9.8939 C.ar    1  UNL1        0.0147
     29 C          65.0297   83.8227   15.1912 C.3     1  UNL1        0.0062
     30 C          64.0393   84.9482   15.2400 C.3     1  UNL1        0.0385
     31 C          63.4283   85.3533   16.5487 C.3     1  UNL1        0.0062
     32 C          64.3349   88.1529   14.6994 C.3     1  UNL1        0.1082
     33 C          63.4044   88.8660   15.6351 C.3     1  UNL1        0.0538
     34 C          63.6792   90.2875   16.0272 C.3     1  UNL1        0.1149
     35 O          62.8981   90.9233   17.1389 O.3     1  UNL1       -0.3843
     36 H          62.2613   90.2834   17.4937 H       1  UNL1        0.2103
     37 C          64.7350   91.0733   15.3077 C.3     1  UNL1        0.0589
     38 C          65.4181   92.2177   15.9961 C.3     1  UNL1        0.1185
     39 O          64.7241   92.9451   17.1094 O.3     1  UNL1       -0.3840
     40 H          63.8495   92.5523   17.2565 H       1  UNL1        0.2104
     41 C          66.7949   92.6346   15.5713 C.3     1  UNL1        0.0710
     42 C          67.0260   93.1555   14.1837 C.2     1  UNL1        0.0528
     43 O          68.0434   92.5014   13.2967 O.co2   1  UNL1       -0.5491
     44 O          66.2395   94.3307   13.6832 O.co2   1  UNL1       -0.5491
@<TRIPOS>UNITY_ATOM_ATTR
43 1
charge -1
@<TRIPOS>BOND
     1    29    30    1
     2    30    31    1
     3    30     1    1
     4     1     2   ar
     5     2    19    1
     6    19    20    2
     7    19    21   am
     8    21    23    1
     9    23    24   ar
    10    24    25   ar
    11    25    26   ar
    12    26    27   ar
    13    27    28   ar
    14     2     3   ar
    15     3    13    1
    16    13    14   ar
    17    14    15   ar
    18    15    16   ar
    19    16    17   ar
    20    17    18   ar
    21     3     4   ar
    22     4     6    1
    23     6     7   ar
    24     7     8   ar
    25     8     9   ar
    26     9    10    1
    27     9    11   ar
    28    11    12   ar
    29     4     5   ar
    30     5    32    1
    31    32    33    1
    32    33    34    1
    33    34    35    1
    34    34    37    1
    35    37    38    1
    36    38    39    1
    37    38    41    1
    38    41    42    1
    39    42    43   ar
    40    42    44   ar
    41     5     1   ar
    42    28    23   ar
    43    18    13   ar
    44    12     6   ar
    45    21    22    1
    46    35    36    1
    47    39    40    1
@<TRIPOS>MOLECULE
*****
 44 47 0 0 0
SMALL
GASTEIGER

@<TRIPOS>ATOM
      1 C          61.0435   88.6138   10.4824 C.ar    1  UNL1        0.0410
      2 C          60.8031   88.0313    9.1212 C.ar    1  UNL1        0.0667
      3 C          61.4514   86.6795    9.0744 C.ar    1  UNL1        0.0212
      4 C          62.0926   86.4264   10.4067 C.ar    1  UNL1        0.0597
      5 N          61.8405   87.6220   11.2769 N.ar    1  UNL1       -0.3304
      6 C          62.8524   85.1944   10.7997 C.ar    1  UNL1        0.0159
      7 C          62.9137   84.7783   12.2395 C.ar    1  UNL1        0.0037
      8 C          63.6734   83.5462   12.6325 C.ar    1  UNL1        0.0297
      9 C          64.3720   82.7300   11.5857 C.ar    1  UNL1        0.1401
     10 F          65.1318   81.4978   11.9788 F       1  UNL1       -0.2042
     11 C          64.3108   83.1460   10.1458 C.ar    1  UNL1        0.0297
     12 C          63.5509   84.3782    9.7529 C.ar    1  UNL1        0.0037
     13 C          61.4575   85.7448    7.9013 C.ar    1  UNL1        0.0016
     14 C          62.7588   85.3161    7.2906 C.ar    1  UNL1        0.0000
     15 C          62.7647   84.3814    6.1174 C.ar    1  UNL1        0.0000
     16 C          61.4695   83.8753    5.5549 C.ar    1  UNL1        0.0000
     17 C          60.1683   84.3040    6.1656 C.ar    1  UNL1        0.0000
     18 C          60.1623   85.2387    7.3388 C.ar    1  UNL1        0.0000
     19 C          60.0471   88.6858    8.0031 C.2     1  UNL1        0.2506
     20 O          58.7259   88.1277    7.5637 O.2     1  UNL1       -0.2698
     21 N          60.6121   89.8983    7.3246 N.am    1  UNL1       -0.2803
     22 H          61.4792   90.2646    7.6131 H       1  UNL1        0.1552
     23 C          59.8561   90.5528    6.2065 C.ar    1  UNL1        0.0505
     24 C          60.5995   91.2437    5.1021 C.ar    1  UNL1        0.0147
     25 C          59.8434   91.8982    3.9840 C.ar    1  UNL1        0.0013
     26 C          58.3439   91.8617    3.9705 C.ar    1  UNL1        0.0001
     27 C          57.6005   91.1707    5.0749 C.ar    1  UNL1        0.0013
     28 C          58.3566   90.5163    6.1929 C.ar    1  UNL1        0.0147
     29 C          59.2221   90.0846   11.6090 C.3     1  UNL1        0.0062
     30 C          60.5702   89.9530   10.9646 C.3     1  UNL1        0.0385
     31 C          61.4449   91.1607   10.8023 C.3     1  UNL1        0.0062
     32 C          62.3040   87.7952   12.6930 C.3     1  UNL1        0.1082
     33 C          63.5755   88.5371   12.9804 C.3     1  UNL1        0.0538
     34 C          63.5307   89.8490   13.7064 C.3     1  UNL1        0.1149
     35 O          62.4549   90.1095   14.7187 O.3     1  UNL1       -0.3843
     36 H          61.8759   89.3339   14.7822 H       1  UNL1        0.2103
     37 C          64.5616   90.9002   13.4200 C.3     1  UNL1        0.0589
     38 C          65.3648   91.4884   14.5422 C.3     1  UNL1        0.1185
     39 O          64.6749   91.9860   15.7776 O.3     1  UNL1       -0.3840
     40 H          63.7180   91.8543   15.6889 H       1  UNL1        0.2104
     41 C          66.8578   91.5789   14.4287 C.3     1  UNL1        0.0710
     42 C          67.6142   92.5719   15.2604 C.2     1  UNL1        0.0528
     43 O          68.9533   93.0687   14.8022 O.co2   1  UNL1       -0.5491
     44 O          67.0314   93.0682   16.5504 O.co2   1  UNL1       -0.5491
@<TRIPOS>UNITY_ATOM_ATTR
43 1
charge -1
@<TRIPOS>BOND
     1    29    30    1
     2    30    31    1
     3    30     1    1
     4     1     2   ar
     5     2    19    1
     6    19    20    2
     7    19    21   am
     8    21    23    1
     9    23    24   ar
    10    24    25   ar
    11    25    26   ar
    12    26    27   ar
    13    27    28   ar
    14     2     3   ar
    15     3    13    1
    16    13    14   ar
    17    14    15   ar
    18    15    16   ar
    19    16    17   ar
    20    17    18   ar
    21     3     4   ar
    22     4     6    1
    23     6     7   ar
    24     7     8   ar
    25     8     9   ar
    26     9    10    1
    27     9    11   ar
    28    11    12   ar
    29     4     5   ar
    30     5    32    1
    31    32    33    1
    32    33    34    1
    33    34    35    1
    34    34    37    1
    35    37    38    1
    36    38    39    1
    37    38    41    1
    38    41    42    1
    39    42    43   ar
    40    42    44   ar
    41     5     1   ar
    42    28    23   ar
    43    18    13   ar
    44    12     6   ar
    45    21    22    1
    46    35    36    1
    47    39    40    1
@<TRIPOS>MOLECULE
*****
 44 47 0 0 0
SMALL
GASTEIGER

@<TRIPOS>ATOM
      1 C          63.6727   86.0964   14.0804 C.ar    1  UNL1        0.0410
      2 C          63.0232   85.4451   12.8955 C.ar    1  UNL1        0.0667
      3 C          62.8056   86.4977   11.8493 C.ar    1  UNL1        0.0212
      4 C          63.3206   87.7997   12.3875 C.ar    1  UNL1        0.0597
      5 N          63.8565   87.5517   13.7664 N.ar    1  UNL1       -0.3304
      6 C          63.3029   89.1180   11.6724 C.ar    1  UNL1        0.0159
      7 C          62.4176   89.3111   10.4769 C.ar    1  UNL1        0.0037
      8 C          62.3999   90.6294    9.7618 C.ar    1  UNL1        0.0297
      9 C          63.2674   91.7549   10.2421 C.ar    1  UNL1        0.1401
     10 F          63.2496   93.0734    9.5269 F       1  UNL1       -0.2042
     11 C          64.1527   91.5620   11.4376 C.ar    1  UNL1        0.0297
     12 C          64.1704   90.2435   12.1526 C.ar    1  UNL1        0.0037
     13 C          62.1824   86.2855   10.5015 C.ar    1  UNL1        0.0016
     14 C          62.9828   85.6666    9.3941 C.ar    1  UNL1        0.0000
     15 C          62.3595   85.4545    8.0463 C.ar    1  UNL1        0.0000
     16 C          60.9359   85.8613    7.8058 C.ar    1  UNL1        0.0000
     17 C          60.1355   86.4802    8.9132 C.ar    1  UNL1        0.0000
     18 C          60.7588   86.6923   10.2610 C.ar    1  UNL1        0.0000
     19 C          62.6558   83.9955   12.7777 C.2     1  UNL1        0.2506
     20 O          62.5836   83.3476   11.4268 O.2     1  UNL1       -0.2698
     21 N          62.3606   83.1940   14.0107 N.am    1  UNL1       -0.2803
     22 H          62.4080   83.6193   14.8973 H       1  UNL1        0.1552
     23 C          61.9932   81.7444   13.8928 C.ar    1  UNL1        0.0505
     24 C          63.0171   80.7454   13.4417 C.ar    1  UNL1        0.0147
     25 C          62.6497   79.2960   13.3239 C.ar    1  UNL1        0.0013
     26 C          61.2583   78.8454   13.6572 C.ar    1  UNL1        0.0001
     27 C          60.2344   79.8444   14.1083 C.ar    1  UNL1        0.0013
     28 C          60.6018   81.2939   14.2261 C.ar    1  UNL1        0.0147
     29 C          63.3402   85.7215   16.6297 C.3     1  UNL1        0.0062
     30 C          64.0688   85.4127   15.3554 C.3     1  UNL1        0.0385
     31 C          65.1935   84.4202   15.3561 C.3     1  UNL1        0.0062
     32 C          64.4687   88.5786   14.6723 C.3     1  UNL1        0.1082
     33 C          63.5890   89.4781   15.4890 C.3     1  UNL1        0.0538
     34 C          63.9658   90.9162   15.6885 C.3     1  UNL1        0.1149
     35 O          63.3221   91.7154   16.7825 O.3     1  UNL1       -0.3843
     36 H          62.6914   91.1565   17.2630 H       1  UNL1        0.2103
     37 C          64.9864   91.5551   14.7940 C.3     1  UNL1        0.0589
     38 C          66.2356   92.1426   15.3811 C.3     1  UNL1        0.1185
     39 O          66.1762   92.8789   16.6866 O.3     1  UNL1       -0.3840
     40 H          65.2632   92.8832   17.0141 H       1  UNL1        0.2104
     41 C          67.5439   91.9938   14.6627 C.3     1  UNL1        0.0710
     42 C          68.6825   92.9176   14.9791 C.2     1  UNL1        0.0528
     43 O          68.4826   94.0532   15.9384 O.co2   1  UNL1       -0.5491
     44 O          70.0210   92.7057   14.3361 O.co2   1  UNL1       -0.5491
@<TRIPOS>UNITY_ATOM_ATTR
43 1
charge -1
@<TRIPOS>BOND
     1    29    30    1
     2    30    31    1
     3    30     1    1
     4     1     2   ar
     5     2    19    1
     6    19    20    2
     7    19    21   am
     8    21    23    1
     9    23    24   ar
    10    24    25   ar
    11    25    26   ar
    12    26    27   ar
    13    27    28   ar
    14     2     3   ar
    15     3    13    1
    16    13    14   ar
    17    14    15   ar
    18    15    16   ar
    19    16    17   ar
    20    17    18   ar
    21     3     4   ar
    22     4     6    1
    23     6     7   ar
    24     7     8   ar
    25     8     9   ar
    26     9    10    1
    27     9    11   ar
    28    11    12   ar
    29     4     5   ar
    30     5    32    1
    31    32    33    1
    32    33    34    1
    33    34    35    1
    34    34    37    1
    35    37    38    1
    36    38    39    1
    37    38    41    1
    38    41    42    1
    39    42    43   ar
    40    42    44   ar
    41     5     1   ar
    42    28    23   ar
    43    18    13   ar
    44    12     6   ar
    45    21    22    1
    46    35    36    1
    47    39    40    1
@<TRIPOS>MOLECULE
*****
 44 47 0 0 0
SMALL
GASTEIGER

@<TRIPOS>ATOM
      1 C          62.6999   88.3960   11.1722 C.ar    1  UNL1        0.0410
      2 C          62.9105   87.2538   12.1215 C.ar    1  UNL1        0.0667
      3 C          63.5071   87.8036   13.3831 C.ar    1  UNL1        0.0212
      4 C          63.6653   89.2856   13.2136 C.ar    1  UNL1        0.0597
      5 N          63.1664   89.6517   11.8472 N.ar    1  UNL1       -0.3304
      6 C          64.2242   90.2347   14.2318 C.ar    1  UNL1        0.0159
      7 C          65.5838   90.8355   14.0303 C.ar    1  UNL1        0.0037
      8 C          66.1427   91.7847   15.0485 C.ar    1  UNL1        0.0297
      9 C          65.3421   92.1330   16.2682 C.ar    1  UNL1        0.1401
     10 F          65.9010   93.0822   17.2863 F       1  UNL1       -0.2042
     11 C          63.9824   91.5322   16.4697 C.ar    1  UNL1        0.0297
     12 C          63.4236   90.5830   15.4515 C.ar    1  UNL1        0.0037
     13 C          63.8800   87.0106   14.6005 C.ar    1  UNL1        0.0016
     14 C          63.1232   87.2022   15.8813 C.ar    1  UNL1        0.0000
     15 C          63.4962   86.4091   17.0986 C.ar    1  UNL1        0.0000
     16 C          64.6260   85.4244   17.0352 C.ar    1  UNL1        0.0000
     17 C          65.3828   85.2328   15.7544 C.ar    1  UNL1        0.0000
     18 C          65.0098   86.0259   14.5371 C.ar    1  UNL1        0.0000
     19 C          62.5820   85.8145   11.8557 C.2     1  UNL1        0.2506
     20 O          61.2663   85.4477   11.2356 O.2     1  UNL1       -0.2698
     21 N          63.5691   84.7422   12.2100 N.am    1  UNL1       -0.2803
     22 H          64.4326   84.9830   12.6170 H       1  UNL1        0.1552
     23 C          63.2407   83.3029   11.9442 C.ar    1  UNL1        0.0505
     24 C          62.4977   82.5011   12.9713 C.ar    1  UNL1        0.0147
     25 C          62.1692   81.0619   12.7055 C.ar    1  UNL1        0.0013
     26 C          62.5838   80.4244   11.4125 C.ar    1  UNL1        0.0001
     27 C          63.3268   81.2262   10.3854 C.ar    1  UNL1        0.0013
     28 C          63.6552   82.6654   10.6512 C.ar    1  UNL1        0.0147
     29 C          61.1408   89.3273    9.3143 C.3     1  UNL1        0.0062
     30 C          62.1240   88.2995    9.7905 C.3     1  UNL1        0.0385
     31 C          62.5313   87.1751    8.8850 C.3     1  UNL1        0.0062
     32 C          63.1389   91.0313   11.2590 C.3     1  UNL1        0.1082
     33 C          64.2676   91.4980   10.3882 C.3     1  UNL1        0.0538
     34 C          65.3405   92.3776   10.9583 C.3     1  UNL1        0.1149
     35 O          64.9763   93.5029   11.8808 O.3     1  UNL1       -0.3843
     36 H          64.0143   93.5224   12.0030 H       1  UNL1        0.2103
     37 C          66.7777   92.1318   10.6059 C.3     1  UNL1        0.0589
     38 C          67.5667   93.1899    9.8932 C.3     1  UNL1        0.1185
     39 O          69.0620   93.0924    9.8255 O.3     1  UNL1       -0.3840
     40 H          69.3552   92.2922   10.2888 H       1  UNL1        0.2104
     41 C          66.8604   94.3454    9.2482 C.3     1  UNL1        0.0710
     42 C          66.9470   95.7127    9.8590 C.2     1  UNL1        0.0528
     43 O          67.5301   96.8496    9.0733 O.co2   1  UNL1       -0.5491
     44 O          66.4504   95.9430   11.2555 O.co2   1  UNL1       -0.5491
@<TRIPOS>UNITY_ATOM_ATTR
43 1
charge -1
@<TRIPOS>BOND
     1    29    30    1
     2    30    31    1
     3    30     1    1
     4     1     2   ar
     5     2    19    1
     6    19    20    2
     7    19    21   am
     8    21    23    1
     9    23    24   ar
    10    24    25   ar
    11    25    26   ar
    12    26    27   ar
    13    27    28   ar
    14     2     3   ar
    15     3    13    1
    16    13    14   ar
    17    14    15   ar
    18    15    16   ar
    19    16    17   ar
    20    17    18   ar
    21     3     4   ar
    22     4     6    1
    23     6     7   ar
    24     7     8   ar
    25     8     9   ar
    26     9    10    1
    27     9    11   ar
    28    11    12   ar
    29     4     5   ar
    30     5    32    1
    31    32    33    1
    32    33    34    1
    33    34    35    1
    34    34    37    1
    35    37    38    1
    36    38    39    1
    37    38    41    1
    38    41    42    1
    39    42    43   ar
    40    42    44   ar
    41     5     1   ar
    42    28    23   ar
    43    18    13   ar
    44    12     6   ar
    45    21    22    1
    46    35    36    1
    47    39    40    1
@<TRIPOS>MOLECULE
*****
 44 47 0 0 0
SMALL
GASTEIGER

@<TRIPOS>ATOM
      1 C          63.0041   90.2450   12.1606 C.ar    1  UNL1        0.0410
      2 C          63.8753   90.3896   13.3731 C.ar    1  UNL1        0.0667
      3 C          64.9493   91.3876   13.0559 C.ar    1  UNL1        0.0212
      4 C          64.7419   91.8598   11.6474 C.ar    1  UNL1        0.0597
      5 N          63.5397   91.1537   11.0940 N.ar    1  UNL1       -0.3304
      6 C          65.5880   92.8621   10.9200 C.ar    1  UNL1        0.0159
      7 C          65.2354   94.3192   10.9708 C.ar    1  UNL1        0.0037
      8 C          66.0816   95.3215   10.2434 C.ar    1  UNL1        0.0297
      9 C          67.2805   94.8669    9.4650 C.ar    1  UNL1        0.1401
     10 F          68.1267   95.8692    8.7376 F       1  UNL1       -0.2042
     11 C          67.6332   93.4097    9.4141 C.ar    1  UNL1        0.0297
     12 C          66.7870   92.4075   10.1416 C.ar    1  UNL1        0.0037
     13 C          66.0392   91.8348   13.9843 C.ar    1  UNL1        0.0016
     14 C          67.4757   91.7040   13.5727 C.ar    1  UNL1        0.0000
     15 C          68.5656   92.1512   14.5012 C.ar    1  UNL1        0.0000
     16 C          68.2191   92.7292   15.8413 C.ar    1  UNL1        0.0000
     17 C          66.7826   92.8600   16.2529 C.ar    1  UNL1        0.0000
     18 C          65.6927   92.4128   15.3244 C.ar    1  UNL1        0.0000
     19 C          63.7027   89.6636   14.6743 C.2     1  UNL1        0.2506
     20 O          63.5815   90.4366   15.9541 O.2     1  UNL1       -0.2698
     21 N          63.6514   88.1647   14.6958 N.am    1  UNL1       -0.2803
     22 H          63.7309   87.6573   13.8559 H       1  UNL1        0.1552
     23 C          63.4788   87.4387   15.9971 C.ar    1  UNL1        0.0505
     24 C          63.8123   85.9793   16.0917 C.ar    1  UNL1        0.0147
     25 C          63.6397   85.2534   17.3929 C.ar    1  UNL1        0.0013
     26 C          63.1336   85.9869   18.5995 C.ar    1  UNL1        0.0001
     27 C          62.8002   87.4462   18.5049 C.ar    1  UNL1        0.0013
     28 C          62.9727   88.1721   17.2037 C.ar    1  UNL1        0.0147
     29 C          61.9598   87.9684   11.4704 C.3     1  UNL1        0.0062
     30 C          61.8074   89.3491   12.0364 C.3     1  UNL1        0.0385
     31 C          60.4585   89.8339   12.4783 C.3     1  UNL1        0.0062
     32 C          62.9727   91.3259    9.7160 C.3     1  UNL1        0.1082
     33 C          62.2902   90.1758    9.0367 C.3     1  UNL1        0.0538
     34 C          60.7945   90.1506    8.9262 C.3     1  UNL1        0.1149
     35 O          59.9546   90.8490    9.9542 O.3     1  UNL1       -0.3843
     36 H          60.5309   91.2632   10.6154 H       1  UNL1        0.2103
     37 C          60.1387   89.4269    7.7877 C.3     1  UNL1        0.0589
     38 C          59.6560   88.0187    7.9727 C.3     1  UNL1        0.1185
     39 O          58.2952   87.6218    7.4822 O.3     1  UNL1       -0.3840
     40 H          57.8627   88.3879    7.0736 H       1  UNL1        0.2104
     41 C          60.5342   87.0075    8.6482 C.3     1  UNL1        0.0710
     42 C          61.0794   85.8477    7.8685 C.2     1  UNL1        0.0528
     43 O          60.1926   85.1000    6.9176 O.co2   1  UNL1       -0.5491
     44 O          62.5115   85.4358    8.0399 O.co2   1  UNL1       -0.5491
@<TRIPOS>UNITY_ATOM_ATTR
43 1
charge -1
@<TRIPOS>BOND
     1    29    30    1
     2    30    31    1
     3    30     1    1
     4     1     2   ar
     5     2    19    1
     6    19    20    2
     7    19    21   am
     8    21    23    1
     9    23    24   ar
    10    24    25   ar
    11    25    26   ar
    12    26    27   ar
    13    27    28   ar
    14     2     3   ar
    15     3    13    1
    16    13    14   ar
    17    14    15   ar
    18    15    16   ar
    19    16    17   ar
    20    17    18   ar
    21     3     4   ar
    22     4     6    1
    23     6     7   ar
    24     7     8   ar
    25     8     9   ar
    26     9    10    1
    27     9    11   ar
    28    11    12   ar
    29     4     5   ar
    30     5    32    1
    31    32    33    1
    32    33    34    1
    33    34    35    1
    34    34    37    1
    35    37    38    1
    36    38    39    1
    37    38    41    1
    38    41    42    1
    39    42    43   ar
    40    42    44   ar
    41     5     1   ar
    42    28    23   ar
    43    18    13   ar
    44    12     6   ar
    45    21    22    1
    46    35    36    1
    47    39    40    1
@<TRIPOS>MOLECULE
*****
 44 47 0 0 0
SMALL
GASTEIGER

@<TRIPOS>ATOM
      1 C          63.0173   89.5066   11.4343 C.ar    1  UNL1        0.0410
      2 C          63.9280   90.5508   12.0092 C.ar    1  UNL1        0.0667
      3 C          64.1969   90.1939   13.4411 C.ar    1  UNL1        0.0212
      4 C          63.4525   88.9291   13.7512 C.ar    1  UNL1        0.0597
      5 N          62.7234   88.5043   12.5110 N.ar    1  UNL1       -0.3304
      6 C          63.4394   88.2146   15.0700 C.ar    1  UNL1        0.0159
      7 C          62.9045   88.9030   16.2907 C.ar    1  UNL1        0.0037
      8 C          62.8914   88.1885   17.6095 C.ar    1  UNL1        0.0297
      9 C          63.4131   86.7855   17.7076 C.ar    1  UNL1        0.1401
     10 F          63.4000   86.0710   19.0265 F       1  UNL1       -0.2042
     11 C          63.9480   86.0971   16.4869 C.ar    1  UNL1        0.0297
     12 C          63.9610   86.8117   15.1681 C.ar    1  UNL1        0.0037
     13 C          65.0590   90.9661   14.3952 C.ar    1  UNL1        0.0016
     14 C          66.5466   90.9971   14.2053 C.ar    1  UNL1        0.0000
     15 C          67.4085   91.7694   15.1595 C.ar    1  UNL1        0.0000
     16 C          66.7830   92.5108   16.3037 C.ar    1  UNL1        0.0000
     17 C          65.2954   92.4798   16.4936 C.ar    1  UNL1        0.0000
     18 C          64.4334   91.7075   15.5394 C.ar    1  UNL1        0.0000
     19 C          64.4739   91.7426   11.2801 C.2     1  UNL1        0.2506
     20 O          63.7170   92.3259   10.1239 O.2     1  UNL1       -0.2698
     21 N          65.7767   92.3511   11.7072 N.am    1  UNL1       -0.2803
     22 H          66.2735   91.9683   12.4661 H       1  UNL1        0.1552
     23 C          66.3226   93.5430   10.9781 C.ar    1  UNL1        0.0505
     24 C          67.1600   93.3511    9.7485 C.ar    1  UNL1        0.0147
     25 C          67.7059   94.5429    9.0194 C.ar    1  UNL1        0.0013
     26 C          67.4143   95.9266    9.5199 C.ar    1  UNL1        0.0001
     27 C          66.5769   96.1184   10.7495 C.ar    1  UNL1        0.0013
     28 C          66.0311   94.9266   11.4786 C.ar    1  UNL1        0.0147
     29 C          61.6272   90.5867    9.5236 C.3     1  UNL1        0.0062
     30 C          62.4927   89.4709   10.0295 C.3     1  UNL1        0.0385
     31 C          62.8335   88.3195    9.1306 C.3     1  UNL1        0.0062
     32 C          61.8533   87.2905   12.3719 C.3     1  UNL1        0.1082
     33 C          62.3617   86.0830   11.6415 C.3     1  UNL1        0.0538
     34 C          62.4217   84.7556   12.3375 C.3     1  UNL1        0.1149
     35 O          62.1660   84.6702   13.8131 O.3     1  UNL1       -0.3843
     36 H          61.9785   85.5563   14.1605 H       1  UNL1        0.2103
     37 C          62.7376   83.5137   11.5579 C.3     1  UNL1        0.0589
     38 C          63.9383   82.6886   11.9156 C.3     1  UNL1        0.1185
     39 O          65.1786   82.7660   11.0755 O.3     1  UNL1       -0.3840
     40 H          65.0372   83.3907   10.3470 H       1  UNL1        0.2104
     41 C          63.8985   81.7864   13.1132 C.3     1  UNL1        0.0710
     42 C          62.6155   81.1146   13.5038 C.2     1  UNL1        0.0528
     43 O          61.6639   81.8007   14.4384 O.co2   1  UNL1       -0.5491
     44 O          62.2841   79.7567   12.9597 O.co2   1  UNL1       -0.5491
@<TRIPOS>UNITY_ATOM_ATTR
43 1
charge -1
@<TRIPOS>BOND
     1    29    30    1
     2    30    31    1
     3    30     1    1
     4     1     2   ar
     5     2    19    1
     6    19    20    2
     7    19    21   am
     8    21    23    1
     9    23    24   ar
    10    24    25   ar
    11    25    26   ar
    12    26    27   ar
    13    27    28   ar
    14     2     3   ar
    15     3    13    1
    16    13    14   ar
    17    14    15   ar
    18    15    16   ar
    19    16    17   ar
    20    17    18   ar
    21     3     4   ar
    22     4     6    1
    23     6     7   ar
    24     7     8   ar
    25     8     9   ar
    26     9    10    1
    27     9    11   ar
    28    11    12   ar
    29     4     5   ar
    30     5    32    1
    31    32    33    1
    32    33    34    1
    33    34    35    1
    34    34    37    1
    35    37    38    1
    36    38    39    1
    37    38    41    1
    38    41    42    1
    39    42    43   ar
    40    42    44   ar
    41     5     1   ar
    42    28    23   ar
    43    18    13   ar
    44    12     6   ar
    45    21    22    1
    46    35    36    1
    47    39    40    1
@<TRIPOS>MOLECULE
*****
 44 47 0 0 0
SMALL
GASTEIGER

@<TRIPOS>ATOM
      1 C          62.6562   88.3158   11.1474 C.ar    1  UNL1        0.0410
      2 C          62.8823   87.1692   12.0877 C.ar    1  UNL1        0.0667
      3 C          63.4736   87.7167   13.3528 C.ar    1  UNL1        0.0212
      4 C          63.6132   89.2018   13.1944 C.ar    1  UNL1        0.0597
      5 N          63.1080   89.5721   11.8313 N.ar    1  UNL1       -0.3304
      6 C          64.1616   90.1501   14.2190 C.ar    1  UNL1        0.0159
      7 C          65.5450   90.7077   14.0605 C.ar    1  UNL1        0.0037
      8 C          66.0934   91.6559   15.0851 C.ar    1  UNL1        0.0297
      9 C          65.2584   92.0467   16.2683 C.ar    1  UNL1        0.1401
     10 F          65.8068   92.9950   17.2930 F       1  UNL1       -0.2042
     11 C          63.8748   91.4892   16.4269 C.ar    1  UNL1        0.0297
     12 C          63.3265   90.5408   15.4022 C.ar    1  UNL1        0.0037
     13 C          63.8580   86.9192   14.5636 C.ar    1  UNL1        0.0016
     14 C          64.9915   85.9398   14.4879 C.ar    1  UNL1        0.0000
     15 C          65.3758   85.1423   15.6988 C.ar    1  UNL1        0.0000
     16 C          64.6266   85.3242   16.9855 C.ar    1  UNL1        0.0000
     17 C          63.4931   86.3037   17.0613 C.ar    1  UNL1        0.0000
     18 C          63.1088   87.1011   15.8504 C.ar    1  UNL1        0.0000
     19 C          62.5714   85.7279   11.8114 C.2     1  UNL1        0.2506
     20 O          61.2688   85.3513   11.1699 O.2     1  UNL1       -0.2698
     21 N          63.5630   84.6634   12.1766 N.am    1  UNL1       -0.2803
     22 H          64.4180   84.9106   12.5976 H       1  UNL1        0.1552
     23 C          63.2522   83.2222   11.9002 C.ar    1  UNL1        0.0505
     24 C          63.6367   82.6107   10.5857 C.ar    1  UNL1        0.0147
     25 C          63.3258   81.1695   10.3094 C.ar    1  UNL1        0.0013
     26 C          62.6304   80.3399   11.3477 C.ar    1  UNL1        0.0001
     27 C          62.2460   80.9514   12.6623 C.ar    1  UNL1        0.0013
     28 C          62.5568   82.3925   12.9386 C.ar    1  UNL1        0.0147
     29 C          62.5103   87.1183    8.8464 C.3     1  UNL1        0.0062
     30 C          62.0797   88.2225    9.7657 C.3     1  UNL1        0.0385
     31 C          61.0727   89.2336    9.3034 C.3     1  UNL1        0.0062
     32 C          63.0626   90.9556   11.2537 C.3     1  UNL1        0.1082
     33 C          64.2453   91.4951   10.5053 C.3     1  UNL1        0.0538
     34 C          64.8870   92.7788   10.9417 C.3     1  UNL1        0.1149
     35 O          64.9956   93.1045   12.4018 O.3     1  UNL1       -0.3843
     36 H          64.6055   92.3857   12.9234 H       1  UNL1        0.2103
     37 C          65.4200   93.7367    9.9178 C.3     1  UNL1        0.0589
     38 C          66.7336   94.4241   10.1460 C.3     1  UNL1        0.1185
     39 O          66.8651   95.4480   11.2343 O.3     1  UNL1       -0.3840
     40 H          66.0150   95.5451   11.6913 H       1  UNL1        0.2104
     41 C          67.9156   94.0877    9.2860 C.3     1  UNL1        0.0710
     42 C          68.5129   92.7126    9.3369 C.2     1  UNL1        0.0528
     43 O          68.9501   92.0374    8.0710 O.co2   1  UNL1       -0.5491
     44 O          68.6730   92.0129   10.6540 O.co2   1  UNL1       -0.5491
@<TRIPOS>UNITY_ATOM_ATTR
43 1
charge -1
@<TRIPOS>BOND
     1    29    30    1
     2    30    31    1
     3    30     1    1
     4     1     2   ar
     5     2    19    1
     6    19    20    2
     7    19    21   am
     8    21    23    1
     9    23    24   ar
    10    24    25   ar
    11    25    26   ar
    12    26    27   ar
    13    27    28   ar
    14     2     3   ar
    15     3    13    1
    16    13    14   ar
    17    14    15   ar
    18    15    16   ar
    19    16    17   ar
    20    17    18   ar
    21     3     4   ar
    22     4     6    1
    23     6     7   ar
    24     7     8   ar
    25     8     9   ar
    26     9    10    1
    27     9    11   ar
    28    11    12   ar
    29     4     5   ar
    30     5    32    1
    31    32    33    1
    32    33    34    1
    33    34    35    1
    34    34    37    1
    35    37    38    1
    36    38    39    1
    37    38    41    1
    38    41    42    1
    39    42    43   ar
    40    42    44   ar
    41     5     1   ar
    42    28    23   ar
    43    18    13   ar
    44    12     6   ar
    45    21    22    1
    46    35    36    1
    47    39    40    1
@<TRIPOS>MOLECULE
*****
 44 47 0 0 0
SMALL
GASTEIGER

@<TRIPOS>ATOM
      1 C          62.9707   90.3051   12.1563 C.ar    1  UNL1        0.0410
      2 C          63.8471   90.4257   13.3677 C.ar    1  UNL1        0.0667
      3 C          64.9298   91.4170   13.0598 C.ar    1  UNL1        0.0212
      4 C          64.7228   91.9091   11.6580 C.ar    1  UNL1        0.0597
      5 N          63.5120   91.2219   11.0996 N.ar    1  UNL1       -0.3304
      6 C          65.5765   92.9122   10.9406 C.ar    1  UNL1        0.0159
      7 C          66.7256   92.4504   10.0942 C.ar    1  UNL1        0.0037
      8 C          67.5794   93.4535    9.3768 C.ar    1  UNL1        0.0297
      9 C          67.2841   94.9185    9.5057 C.ar    1  UNL1        0.1401
     10 F          68.1379   95.9217    8.7882 F       1  UNL1       -0.2042
     11 C          66.1350   95.3804   10.3521 C.ar    1  UNL1        0.0297
     12 C          65.2813   94.3772   11.0695 C.ar    1  UNL1        0.0037
     13 C          66.0270   91.8417   13.9902 C.ar    1  UNL1        0.0016
     14 C          65.6903   92.4135   15.3355 C.ar    1  UNL1        0.0000
     15 C          66.7876   92.8381   16.2659 C.ar    1  UNL1        0.0000
     16 C          68.2216   92.6910   15.8511 C.ar    1  UNL1        0.0000
     17 C          68.5583   92.1193   14.5059 C.ar    1  UNL1        0.0000
     18 C          67.4610   91.6946   13.5755 C.ar    1  UNL1        0.0000
     19 C          63.6714   89.6850   14.6603 C.2     1  UNL1        0.2506
     20 O          63.4998   90.4443   15.9425 O.2     1  UNL1       -0.2698
     21 N          63.6672   88.1851   14.6706 N.am    1  UNL1       -0.2803
     22 H          63.7798   87.6868   13.8290 H       1  UNL1        0.1552
     23 C          63.4915   87.4444   15.9631 C.ar    1  UNL1        0.0505
     24 C          63.8205   85.9830   16.0408 C.ar    1  UNL1        0.0147
     25 C          63.6448   85.2424   17.3333 C.ar    1  UNL1        0.0013
     26 C          63.1401   85.9632   18.5481 C.ar    1  UNL1        0.0001
     27 C          62.8111   87.4246   18.4704 C.ar    1  UNL1        0.0013
     28 C          62.9868   88.1652   17.1779 C.ar    1  UNL1        0.0147
     29 C          61.9096   88.0307   11.4847 C.3     1  UNL1        0.0062
     30 C          61.7649   89.4226   12.0247 C.3     1  UNL1        0.0385
     31 C          60.4145   89.9321   12.4331 C.3     1  UNL1        0.0062
     32 C          62.9424   91.4171    9.7257 C.3     1  UNL1        0.1082
     33 C          62.3826   90.2469    8.9726 C.3     1  UNL1        0.0538
     34 C          60.9035   89.9979    8.9653 C.3     1  UNL1        0.1149
     35 O          59.9930   90.8644    9.7840 O.3     1  UNL1       -0.3843
     36 H          60.5176   91.5314   10.2539 H       1  UNL1        0.2103
     37 C          60.3348   88.8825    8.1391 C.3     1  UNL1        0.0589
     38 C          59.3391   89.1822    7.0580 C.3     1  UNL1        0.1185
     39 O          57.9950   88.5165    7.0708 O.3     1  UNL1       -0.3840
     40 H          57.9332   87.9276    7.8392 H       1  UNL1        0.2104
     41 C          59.6876   90.1477    5.9641 C.3     1  UNL1        0.0710
     42 C          58.6565   91.1133    5.4596 C.2     1  UNL1        0.0528
     43 O          59.0833   92.4151    4.8490 O.co2   1  UNL1       -0.5491
     44 O          57.1986   90.7770    5.5658 O.co2   1  UNL1       -0.5491
@<TRIPOS>UNITY_ATOM_ATTR
43 1
charge -1
@<TRIPOS>BOND
     1    29    30    1
     2    30    31    1
     3    30     1    1
     4     1     2   ar
     5     2    19    1
     6    19    20    2
     7    19    21   am
     8    21    23    1
     9    23    24   ar
    10    24    25   ar
    11    25    26   ar
    12    26    27   ar
    13    27    28   ar
    14     2     3   ar
    15     3    13    1
    16    13    14   ar
    17    14    15   ar
    18    15    16   ar
    19    16    17   ar
    20    17    18   ar
    21     3     4   ar
    22     4     6    1
    23     6     7   ar
    24     7     8   ar
    25     8     9   ar
    26     9    10    1
    27     9    11   ar
    28    11    12   ar
    29     4     5   ar
    30     5    32    1
    31    32    33    1
    32    33    34    1
    33    34    35    1
    34    34    37    1
    35    37    38    1
    36    38    39    1
    37    38    41    1
    38    41    42    1
    39    42    43   ar
    40    42    44   ar
    41     5     1   ar
    42    28    23   ar
    43    18    13   ar
    44    12     6   ar
    45    21    22    1
    46    35    36    1
    47    39    40    1
@<TRIPOS>MOLECULE
*****
 44 47 0 0 0
SMALL
GASTEIGER

@<TRIPOS>ATOM
      1 C          63.5181   90.6957   11.5246 C.ar    1  UNL1        0.0410
      2 C          64.5135   91.5235   12.2822 C.ar    1  UNL1        0.0667
      3 C          64.7265   90.8820   13.6213 C.ar    1  UNL1        0.0212
      4 C          63.8627   89.6576   13.6913 C.ar    1  UNL1        0.0597
      5 N          63.1159   89.5424   12.3955 N.ar    1  UNL1       -0.3304
      6 C          63.7632   88.7142   14.8531 C.ar    1  UNL1        0.0159
      7 C          64.3138   87.3235   14.7393 C.ar    1  UNL1        0.0037
      8 C          64.2143   86.3800   15.9011 C.ar    1  UNL1        0.0297
      9 C          63.5643   86.8271   17.1768 C.ar    1  UNL1        0.1401
     10 F          63.4648   85.8836   18.3387 F       1  UNL1       -0.2042
     11 C          63.0137   88.2178   17.2907 C.ar    1  UNL1        0.0297
     12 C          63.1132   89.1613   16.1288 C.ar    1  UNL1        0.0037
     13 C          65.6424   91.3777   14.7007 C.ar    1  UNL1        0.0016
     14 C          65.0736   92.0280   15.9269 C.ar    1  UNL1        0.0000
     15 C          65.9896   92.5238   17.0063 C.ar    1  UNL1        0.0000
     16 C          67.4745   92.3693   16.8595 C.ar    1  UNL1        0.0000
     17 C          68.0432   91.7191   15.6333 C.ar    1  UNL1        0.0000
     18 C          67.1272   91.2233   14.5539 C.ar    1  UNL1        0.0000
     19 C          65.1791   92.7734   11.7875 C.2     1  UNL1        0.2506
     20 O          65.5648   93.8516   12.7564 O.2     1  UNL1       -0.2698
     21 N          65.4589   92.9452   10.3239 N.am    1  UNL1       -0.2803
     22 H          65.2057   92.2376    9.6880 H       1  UNL1        0.1552
     23 C          66.1245   94.1952    9.8292 C.ar    1  UNL1        0.0505
     24 C          67.3314   94.1020    8.9435 C.ar    1  UNL1        0.0147
     25 C          67.9969   95.3520    8.4488 C.ar    1  UNL1        0.0013
     26 C          67.4555   96.6951    8.8399 C.ar    1  UNL1        0.0001
     27 C          66.2485   96.7882    9.7256 C.ar    1  UNL1        0.0013
     28 C          65.5830   95.5383   10.2203 C.ar    1  UNL1        0.0147
     29 C          62.2381   89.9226    9.4000 C.3     1  UNL1        0.0062
     30 C          63.0135   90.9724   10.1394 C.3     1  UNL1        0.0385
     31 C          63.2843   92.2989    9.4936 C.3     1  UNL1        0.0062
     32 C          62.1384   88.4636   12.0341 C.3     1  UNL1        0.1082
     33 C          62.6329   87.0953   11.6690 C.3     1  UNL1        0.0538
     34 C          61.9038   86.2845   10.6389 C.3     1  UNL1        0.1149
     35 O          60.5240   86.6851   10.2081 O.3     1  UNL1       -0.3843
     36 H          60.2541   87.4832   10.6887 H       1  UNL1        0.2103
     37 C          62.5546   85.0732   10.0397 C.3     1  UNL1        0.0589
     38 C          63.2121   84.0585   10.9275 C.3     1  UNL1        0.1185
     39 O          64.5558   83.5008   10.5620 O.3     1  UNL1       -0.3840
     40 H          64.8555   83.8987    9.7296 H       1  UNL1        0.2104
     41 C          62.5260   83.6015   12.1806 C.3     1  UNL1        0.0710
     42 C          63.2577   83.6313   13.4897 C.2     1  UNL1        0.0528
     43 O          62.5132   83.3970   14.7706 O.co2   1  UNL1       -0.5491
     44 O          64.7339   83.8955   13.5179 O.co2   1  UNL1       -0.5491
@<TRIPOS>UNITY_ATOM_ATTR
43 1
charge -1
@<TRIPOS>BOND
     1    29    30    1
     2    30    31    1
     3    30     1    1
     4     1     2   ar
     5     2    19    1
     6    19    20    2
     7    19    21   am
     8    21    23    1
     9    23    24   ar
    10    24    25   ar
    11    25    26   ar
    12    26    27   ar
    13    27    28   ar
    14     2     3   ar
    15     3    13    1
    16    13    14   ar
    17    14    15   ar
    18    15    16   ar
    19    16    17   ar
    20    17    18   ar
    21     3     4   ar
    22     4     6    1
    23     6     7   ar
    24     7     8   ar
    25     8     9   ar
    26     9    10    1
    27     9    11   ar
    28    11    12   ar
    29     4     5   ar
    30     5    32    1
    31    32    33    1
    32    33    34    1
    33    34    35    1
    34    34    37    1
    35    37    38    1
    36    38    39    1
    37    38    41    1
    38    41    42    1
    39    42    43   ar
    40    42    44   ar
    41     5     1   ar
    42    28    23   ar
    43    18    13   ar
    44    12     6   ar
    45    21    22    1
    46    35    36    1
    47    39    40    1
