@<TRIPOS>MOLECULE
*****
 33 35 0 0 0
SMALL
GASTEIGER

@<TRIPOS>ATOM
      1 C          63.3035   90.3876   13.7573 C.3     1  UNL1        0.0941
      2 N          62.0900   89.7903   13.1088 N.am    1  UNL1       -0.3039
      3 C          61.7922   90.0776   11.6670 C.2     1  UNL1        0.2250
      4 O          62.7077   90.9622   10.8738 O.2     1  UNL1       -0.2750
      5 H          61.4891   89.2097   13.6294 H       1  UNL1        0.1494
      6 C          60.5786   89.4803   11.0184 C.3     1  UNL1        0.1154
      7 C          60.7185   88.6863    9.7535 C.3     1  UNL1        0.1377
      8 C          59.9679   89.8300    9.1384 C.3     1  UNL1        0.0335
      9 C          61.4399   87.7085   10.6331 C.3     1  UNL1        0.0613
     10 C          61.8687   86.5492    9.7832 C.3     1  UNL1        0.1290
     11 C          62.2305   85.4645    8.8125 C.3     1  UNL1        0.0305
     12 C          62.9834   84.2561    9.2846 C.3     1  UNL1        0.0025
     13 C          63.3746   84.1325   10.7274 C.3     1  UNL1        0.0002
     14 C          63.0129   85.2173   11.6981 C.3     1  UNL1        0.0025
     15 C          62.2599   86.4256   11.2260 C.3     1  UNL1        0.0305
     16 O          61.4124   86.8105    8.3784 O.3     1  UNL1       -0.2256
     17 O          60.7015   88.1313    8.3600 O.3     1  UNL1       -0.2251
     18 C          64.3602   89.4948   14.3372 C.3     1  UNL1        0.0476
     19 C          63.9582   85.8730   15.9091 C.ar    1  UNL1        0.0529
     20 C          63.2096   86.1923   17.1690 C.ar    1  UNL1        0.0147
     21 C          62.8445   87.6125   17.4851 C.ar    1  UNL1        0.0010
     22 C          63.2280   88.7133   16.5411 C.ar    1  UNL1       -0.0041
     23 C          63.9767   88.3939   15.2811 C.ar    1  UNL1       -0.0192
     24 C          64.3417   86.9739   14.9651 C.ar    1  UNL1        0.0106
     25 C          63.2818   83.5098   15.0677 C.2     1  UNL1        0.4052
     26 O          61.8752   83.9870   14.8584 O.2     1  UNL1       -0.2261
     27 N          64.3233   84.4528   15.5931 N.am    1  UNL1       -0.2499
     28 H          65.2465   84.1396   15.7305 H       1  UNL1        0.1582
     29 O          63.6469   82.0896   14.7517 O.3     1  UNL1       -0.4417
     30 C          64.4635   81.9237   12.8010 C.3     1  UNL1        0.0437
     31 C          63.1966   81.4687   13.4627 C.3     1  UNL1        0.1378
     32 C          61.9297   81.0136   14.1243 C.3     1  UNL1        0.0437
     33 C          62.7464   80.8477   12.1735 C.3     1  UNL1        0.0437
@<TRIPOS>BOND
     1    30    31    1
     2    31    32    1
     3    31    33    1
     4    31    29    1
     5    29    25    1
     6    25    26    2
     7    25    27   am
     8    27    19    1
     9    19    20   ar
    10    20    21   ar
    11    21    22   ar
    12    22    23   ar
    13    23    18    1
    14    18     1    1
    15     1     2    1
    16     2     3   am
    17     3     4    2
    18     3     6    1
    19     6     7    1
    20     7     8    1
    21     7     9    1
    22     9    10    1
    23    10    11    1
    24    11    12    1
    25    12    13    1
    26    13    14    1
    27    14    15    1
    28    10    16    1
    29    16    17    1
    30    23    24   ar
    31    24    19   ar
    32    17     7    1
    33    15    10    1
    34    27    28    1
    35     2     5    1
@<TRIPOS>MOLECULE
*****
 33 35 0 0 0
SMALL
GASTEIGER

@<TRIPOS>ATOM
      1 C          64.4663   88.1145   14.6093 C.3     1  UNL1        0.0941
      2 N          63.8782   86.9275   13.9058 N.am    1  UNL1       -0.3039
      3 C          63.6385   85.6524   14.6587 C.2     1  UNL1        0.2250
      4 O          63.9869   85.5644   16.1149 O.2     1  UNL1       -0.2750
      5 H          63.6495   86.9852   12.9499 H       1  UNL1        0.1494
      6 C          63.0503   84.4652   13.9551 C.3     1  UNL1        0.1154
      7 C          63.6542   83.9796   12.6708 C.3     1  UNL1        0.1377
      8 C          64.5095   83.1405   13.5733 C.3     1  UNL1        0.0335
      9 C          62.6726   84.9202   12.0369 C.3     1  UNL1        0.0613
     10 C          62.8486   84.8405   10.5493 C.3     1  UNL1        0.1290
     11 C          63.1375   84.6551    9.0891 C.3     1  UNL1        0.0305
     12 C          62.3597   85.4293    8.0666 C.3     1  UNL1        0.0025
     13 C          61.2931   86.3889    8.5042 C.3     1  UNL1        0.0002
     14 C          61.0042   86.5742    9.9644 C.3     1  UNL1        0.0025
     15 C          61.7819   85.8000   10.9869 C.3     1  UNL1        0.0305
     16 O          63.9389   83.8506   10.2639 O.3     1  UNL1       -0.2256
     17 O          64.4368   83.3185   11.5751 O.3     1  UNL1       -0.2251
     18 C          63.8460   89.4697   14.4402 C.3     1  UNL1        0.0476
     19 C          64.3247   91.9823   11.4057 C.ar    1  UNL1        0.0529
     20 C          63.5184   91.2986   10.3417 C.ar    1  UNL1        0.0147
     21 C          62.8212   90.0053   10.6438 C.ar    1  UNL1        0.0010
     22 C          62.9303   89.3956   12.0099 C.ar    1  UNL1       -0.0041
     23 C          63.7368   90.0794   13.0740 C.ar    1  UNL1       -0.0192
     24 C          64.4339   91.3726   12.7720 C.ar    1  UNL1        0.0106
     25 C          66.4954   93.4090   11.3510 C.2     1  UNL1        0.4052
     26 O          67.2716   92.2490   11.9005 O.2     1  UNL1       -0.2261
     27 N          65.0219   93.2756   11.1037 N.am    1  UNL1       -0.2499
     28 H          64.5125   94.0370   10.7430 H       1  UNL1        0.1582
     29 O          67.1926   94.7023   11.0490 O.3     1  UNL1       -0.4417
     30 C          67.9114   94.1315    9.1366 C.3     1  UNL1        0.0437
     31 C          67.1205   95.2889    9.6704 C.3     1  UNL1        0.1378
     32 C          66.3296   96.4463   10.2041 C.3     1  UNL1        0.0437
     33 C          67.0485   95.8755    8.2916 C.3     1  UNL1        0.0437
@<TRIPOS>BOND
     1    30    31    1
     2    31    32    1
     3    31    33    1
     4    31    29    1
     5    29    25    1
     6    25    26    2
     7    25    27   am
     8    27    19    1
     9    19    20   ar
    10    20    21   ar
    11    21    22   ar
    12    22    23   ar
    13    23    18    1
    14    18     1    1
    15     1     2    1
    16     2     3   am
    17     3     4    2
    18     3     6    1
    19     6     7    1
    20     7     8    1
    21     7     9    1
    22     9    10    1
    23    10    11    1
    24    11    12    1
    25    12    13    1
    26    13    14    1
    27    14    15    1
    28    10    16    1
    29    16    17    1
    30    23    24   ar
    31    24    19   ar
    32    17     7    1
    33    15    10    1
    34    27    28    1
    35     2     5    1
@<TRIPOS>MOLECULE
*****
 33 35 0 0 0
SMALL
GASTEIGER

@<TRIPOS>ATOM
      1 C          61.5316   86.4048    8.8455 C.3     1  UNL1        0.0941
      2 N          61.6155   87.6446    9.6856 N.am    1  UNL1       -0.3039
      3 C          60.7949   88.8487    9.3296 C.2     1  UNL1        0.2250
      4 O          59.8905   88.8131    8.1336 O.2     1  UNL1       -0.2750
      5 H          62.2092   87.6680   10.4707 H       1  UNL1        0.1494
      6 C          60.8789   90.0886   10.1698 C.3     1  UNL1        0.1154
      7 C          61.3700   90.0040   11.5845 C.3     1  UNL1        0.1377
      8 C          60.0922   89.2537   11.8171 C.3     1  UNL1        0.0335
      9 C          62.5452   90.7720   11.0561 C.3     1  UNL1        0.0613
     10 C          63.4956   91.0052   12.1930 C.3     1  UNL1        0.1290
     11 C          64.3439   91.1607   13.4203 C.3     1  UNL1        0.0305
     12 C          65.6523   91.8897   13.3402 C.3     1  UNL1        0.0025
     13 C          66.1125   92.4633   12.0329 C.3     1  UNL1        0.0002
     14 C          65.2642   92.3079   10.8056 C.3     1  UNL1        0.0025
     15 C          63.9558   91.5789   10.8857 C.3     1  UNL1        0.0305
     16 O          62.9078   90.3814   13.4240 O.3     1  UNL1       -0.2256
     17 O          61.5941   89.7626   13.0479 O.3     1  UNL1       -0.2251
     18 C          62.7054   85.4747    8.7616 C.3     1  UNL1        0.0476
     19 C          63.2220   84.3684   12.5378 C.ar    1  UNL1        0.0529
     20 C          63.9183   83.0525   12.3549 C.ar    1  UNL1        0.0147
     21 C          64.2103   82.5440   10.9743 C.ar    1  UNL1        0.0010
     22 C          63.8060   83.3514    9.7765 C.ar    1  UNL1       -0.0041
     23 C          63.1097   84.6674    9.9594 C.ar    1  UNL1       -0.0192
     24 C          62.8177   85.1759   11.3400 C.ar    1  UNL1        0.0106
     25 C          64.0551   85.1345   14.8764 C.2     1  UNL1        0.4052
     26 O          65.4722   84.8834   14.4538 O.2     1  UNL1       -0.2261
     27 N          62.9299   84.8770   13.9184 N.am    1  UNL1       -0.2499
     28 H          61.9998   85.0417   14.1958 H       1  UNL1        0.1582
     29 O          63.7630   85.6430   16.2570 O.3     1  UNL1       -0.4417
     30 C          62.6264   86.7183   17.6894 C.3     1  UNL1        0.0437
     31 C          63.4122   87.0864   16.4659 C.3     1  UNL1        0.1378
     32 C          64.1980   87.4545   15.2424 C.3     1  UNL1        0.0437
     33 C          63.0613   88.5298   16.6749 C.3     1  UNL1        0.0437
@<TRIPOS>BOND
     1    30    31    1
     2    31    32    1
     3    31    33    1
     4    31    29    1
     5    29    25    1
     6    25    26    2
     7    25    27   am
     8    27    19    1
     9    19    20   ar
    10    20    21   ar
    11    21    22   ar
    12    22    23   ar
    13    23    18    1
    14    18     1    1
    15     1     2    1
    16     2     3   am
    17     3     4    2
    18     3     6    1
    19     6     7    1
    20     7     8    1
    21     7     9    1
    22     9    10    1
    23    10    11    1
    24    11    12    1
    25    12    13    1
    26    13    14    1
    27    14    15    1
    28    10    16    1
    29    16    17    1
    30    23    24   ar
    31    24    19   ar
    32    17     7    1
    33    15    10    1
    34    27    28    1
    35     2     5    1
@<TRIPOS>MOLECULE
*****
 33 35 0 0 0
SMALL
GASTEIGER

@<TRIPOS>ATOM
      1 C          61.9329   85.2007   10.2865 C.3     1  UNL1        0.0941
      2 N          62.6368   84.7731   11.5402 N.am    1  UNL1       -0.3039
      3 C          63.7623   83.7841   11.4684 C.2     1  UNL1        0.2250
      4 O          64.1839   83.2227   10.1429 O.2     1  UNL1       -0.2750
      5 H          62.3600   85.1416   12.4102 H       1  UNL1        0.1494
      6 C          64.4661   83.3564   12.7221 C.3     1  UNL1        0.1154
      7 C          63.7017   83.2346   14.0069 C.3     1  UNL1        0.1377
      8 C          63.5700   81.7943   13.6089 C.3     1  UNL1        0.0335
      9 C          63.9933   84.7002   14.1363 C.3     1  UNL1        0.0613
     10 C          63.3815   85.1832   15.4180 C.3     1  UNL1        0.1290
     11 C          62.7203   85.5188   16.7218 C.3     1  UNL1        0.0305
     12 C          62.7695   86.9225   17.2483 C.3     1  UNL1        0.0025
     13 C          63.4800   87.9906   16.4709 C.3     1  UNL1        0.0002
     14 C          64.1412   87.6550   15.1670 C.3     1  UNL1        0.0025
     15 C          64.0920   86.2513   14.6405 C.3     1  UNL1        0.0305
     16 O          62.7118   84.0160   16.0807 O.3     1  UNL1       -0.2256
     17 O          62.9098   82.8116   15.2086 O.3     1  UNL1       -0.2251
     18 C          62.3575   86.4527    9.5779 C.3     1  UNL1        0.0476
     19 C          62.0193   89.8551   11.5927 C.ar    1  UNL1        0.0529
     20 C          60.8038   90.4487   10.9445 C.ar    1  UNL1        0.0147
     21 C          60.1062   89.7104    9.8408 C.ar    1  UNL1        0.0010
     22 C          60.6241   88.3784    9.3852 C.ar    1  UNL1       -0.0041
     23 C          61.8396   87.7847   10.0335 C.ar    1  UNL1       -0.0192
     24 C          62.5372   88.5230   11.1371 C.ar    1  UNL1        0.0106
     25 C          63.8749   91.4933   12.3818 C.2     1  UNL1        0.4052
     26 O          64.3354   91.6550   10.9634 O.2     1  UNL1       -0.2261
     27 N          62.7169   90.5934   12.6965 N.am    1  UNL1       -0.2499
     28 H          62.4147   90.4873   13.6274 H       1  UNL1        0.1582
     29 O          64.5725   92.2317   13.4856 O.3     1  UNL1       -0.4417
     30 C          66.2955   93.3291   12.9141 C.3     1  UNL1        0.0437
     31 C          66.0501   92.0646   13.6826 C.3     1  UNL1        0.1378
     32 C          65.8047   90.8000   14.4511 C.3     1  UNL1        0.0437
     33 C          67.5278   91.8976   13.8796 C.3     1  UNL1        0.0437
@<TRIPOS>BOND
     1    30    31    1
     2    31    32    1
     3    31    33    1
     4    31    29    1
     5    29    25    1
     6    25    26    2
     7    25    27   am
     8    27    19    1
     9    19    20   ar
    10    20    21   ar
    11    21    22   ar
    12    22    23   ar
    13    23    18    1
    14    18     1    1
    15     1     2    1
    16     2     3   am
    17     3     4    2
    18     3     6    1
    19     6     7    1
    20     7     8    1
    21     7     9    1
    22     9    10    1
    23    10    11    1
    24    11    12    1
    25    12    13    1
    26    13    14    1
    27    14    15    1
    28    10    16    1
    29    16    17    1
    30    23    24   ar
    31    24    19   ar
    32    17     7    1
    33    15    10    1
    34    27    28    1
    35     2     5    1
@<TRIPOS>MOLECULE
*****
 33 35 0 0 0
SMALL
GASTEIGER

@<TRIPOS>ATOM
      1 C          63.4777   89.7767   15.1285 C.3     1  UNL1        0.0941
      2 N          64.0212   88.4329   15.5140 N.am    1  UNL1       -0.3039
      3 C          64.0493   87.3190   14.5096 C.2     1  UNL1        0.2250
      4 O          63.5340   87.5491   13.1199 O.2     1  UNL1       -0.2750
      5 H          64.3594   88.2818   16.4261 H       1  UNL1        0.1494
      6 C          64.5928   85.9751   14.8951 C.3     1  UNL1        0.1154
      7 C          63.6611   84.8143   15.0802 C.3     1  UNL1        0.1377
      8 C          63.4298   85.4183   16.4336 C.3     1  UNL1        0.0335
      9 C          64.0871   84.4530   13.6881 C.3     1  UNL1        0.0613
     10 C          63.3703   83.1951   13.2956 C.3     1  UNL1        0.1290
     11 C          62.5862   81.9412   13.0451 C.3     1  UNL1        0.0305
     12 C          62.7158   81.2251   11.7334 C.3     1  UNL1        0.0025
     13 C          63.6294   81.7631   10.6723 C.3     1  UNL1        0.0002
     14 C          64.4134   83.0170   10.9229 C.3     1  UNL1        0.0025
     15 C          64.2839   83.7330   12.2345 C.3     1  UNL1        0.0305
     16 O          62.5012   82.7790   14.4452 O.3     1  UNL1       -0.2256
     17 O          62.6809   83.7798   15.5482 O.3     1  UNL1       -0.2251
     18 C          64.3566   90.7672   14.4239 C.3     1  UNL1        0.0476
     19 C          62.9359   90.5379   10.7254 C.ar    1  UNL1        0.0529
     20 C          63.7474   91.5994   10.0438 C.ar    1  UNL1        0.0147
     21 C          64.7619   92.3835   10.8221 C.ar    1  UNL1        0.0010
     22 C          64.9650   92.1061   12.2822 C.ar    1  UNL1       -0.0041
     23 C          64.1535   91.0446   12.9638 C.ar    1  UNL1       -0.0192
     24 C          63.1390   90.2605   12.1855 C.ar    1  UNL1        0.0106
     25 C          60.7788   89.0914   10.6582 C.2     1  UNL1        0.4052
     26 O          60.6509   89.2131   12.1478 O.2     1  UNL1       -0.2261
     27 N          61.9213   89.7538    9.9470 N.am    1  UNL1       -0.2499
     28 H          62.0053   89.6740    8.9693 H       1  UNL1        0.1582
     29 O          59.7643   88.3073    9.8798 O.3     1  UNL1       -0.4417
     30 C          59.5274   87.9341    7.8051 C.3     1  UNL1        0.0437
     31 C          60.2115   87.2286    8.9384 C.3     1  UNL1        0.1378
     32 C          60.8956   86.5231   10.0715 C.3     1  UNL1        0.0437
     33 C          60.6587   86.1499    7.9968 C.3     1  UNL1        0.0437
@<TRIPOS>BOND
     1    30    31    1
     2    31    32    1
     3    31    33    1
     4    31    29    1
     5    29    25    1
     6    25    26    2
     7    25    27   am
     8    27    19    1
     9    19    20   ar
    10    20    21   ar
    11    21    22   ar
    12    22    23   ar
    13    23    18    1
    14    18     1    1
    15     1     2    1
    16     2     3   am
    17     3     4    2
    18     3     6    1
    19     6     7    1
    20     7     8    1
    21     7     9    1
    22     9    10    1
    23    10    11    1
    24    11    12    1
    25    12    13    1
    26    13    14    1
    27    14    15    1
    28    10    16    1
    29    16    17    1
    30    23    24   ar
    31    24    19   ar
    32    17     7    1
    33    15    10    1
    34    27    28    1
    35     2     5    1
@<TRIPOS>MOLECULE
*****
 33 35 0 0 0
SMALL
GASTEIGER

@<TRIPOS>ATOM
      1 C          62.7743   90.8251   10.8997 C.3     1  UNL1        0.0941
      2 N          63.3632   90.2954   12.1734 N.am    1  UNL1       -0.3039
      3 C          64.4363   91.0680   12.8817 C.2     1  UNL1        0.2250
      4 O          64.9203   92.3702   12.3164 O.2     1  UNL1       -0.2750
      5 H          63.0455   89.4406   12.5445 H       1  UNL1        0.1494
      6 C          65.0253   90.5382   14.1556 C.3     1  UNL1        0.1154
      7 C          64.1294   90.1804   15.3041 C.3     1  UNL1        0.1377
      8 C          64.0250   91.6662   15.4810 C.3     1  UNL1        0.0335
      9 C          64.4211   88.7693   14.8871 C.3     1  UNL1        0.0613
     10 C          63.6836   87.8499   15.8150 C.3     1  UNL1        0.1290
     11 C          62.8931   87.0594   16.8150 C.3     1  UNL1        0.0305
     12 C          62.9016   85.5604   16.7618 C.3     1  UNL1        0.0025
     13 C          63.7006   84.8519   15.7084 C.3     1  UNL1        0.0002
     14 C          64.4911   85.6423   14.7084 C.3     1  UNL1        0.0025
     15 C          64.4826   87.1413   14.7616 C.3     1  UNL1        0.0305
     16 O          62.9361   88.6927   16.8054 O.3     1  UNL1       -0.2256
     17 O          63.2116   90.1331   16.4897 O.3     1  UNL1       -0.2251
     18 C          61.3983   90.4031   10.4772 C.3     1  UNL1        0.0476
     19 C          61.8493   86.5467    9.6559 C.ar    1  UNL1        0.0529
     20 C          60.7512   86.3396    8.6554 C.ar    1  UNL1        0.0147
     21 C          59.8687   87.4870    8.2621 C.ar    1  UNL1        0.0010
     22 C          60.0844   88.8415    8.8693 C.ar    1  UNL1       -0.0041
     23 C          61.1826   89.0486    9.8699 C.ar    1  UNL1       -0.0192
     24 C          62.0650   87.9012   10.2632 C.ar    1  UNL1        0.0106
     25 C          62.7485   84.9186   11.4700 C.2     1  UNL1        0.4052
     26 O          61.8827   85.5854   12.4975 O.2     1  UNL1       -0.2261
     27 N          62.7318   85.3992   10.0492 N.am    1  UNL1       -0.2499
     28 H          63.3001   84.9616    9.3748 H       1  UNL1        0.1582
     29 O          63.6310   83.7712   11.8633 O.3     1  UNL1       -0.4417
     30 C          62.3650   82.1528   12.3902 C.3     1  UNL1        0.0437
     31 C          63.3730   82.4020   11.3078 C.3     1  UNL1        0.1378
     32 C          64.3810   82.6512   10.2253 C.3     1  UNL1        0.0437
     33 C          63.1149   81.0327   10.7523 C.3     1  UNL1        0.0437
@<TRIPOS>BOND
     1    30    31    1
     2    31    32    1
     3    31    33    1
     4    31    29    1
     5    29    25    1
     6    25    26    2
     7    25    27   am
     8    27    19    1
     9    19    20   ar
    10    20    21   ar
    11    21    22   ar
    12    22    23   ar
    13    23    18    1
    14    18     1    1
    15     1     2    1
    16     2     3   am
    17     3     4    2
    18     3     6    1
    19     6     7    1
    20     7     8    1
    21     7     9    1
    22     9    10    1
    23    10    11    1
    24    11    12    1
    25    12    13    1
    26    13    14    1
    27    14    15    1
    28    10    16    1
    29    16    17    1
    30    23    24   ar
    31    24    19   ar
    32    17     7    1
    33    15    10    1
    34    27    28    1
    35     2     5    1
@<TRIPOS>MOLECULE
*****
 33 35 0 0 0
SMALL
GASTEIGER

@<TRIPOS>ATOM
      1 C          62.9783   85.5384   16.0261 C.3     1  UNL1        0.0941
      2 N          62.3143   84.6408   15.0245 N.am    1  UNL1       -0.3039
      3 C          62.9531   83.3374   14.6460 C.2     1  UNL1        0.2250
      4 O          64.2558   82.9317   15.2692 O.2     1  UNL1       -0.2750
      5 H          61.4593   84.9070   14.6155 H       1  UNL1        0.1494
      6 C          62.2891   82.4396   13.6443 C.3     1  UNL1        0.1154
      7 C          62.9164   82.2235   12.2991 C.3     1  UNL1        0.1377
      8 C          63.2241   80.8574   12.8367 C.3     1  UNL1        0.0335
      9 C          62.4776   83.6348   12.0427 C.3     1  UNL1        0.0613
     10 C          62.8980   84.0055   10.6513 C.3     1  UNL1        0.1290
     11 C          63.3787   84.2315    9.2485 C.3     1  UNL1        0.0305
     12 C          63.1420   85.5524    8.5784 C.3     1  UNL1        0.0025
     13 C          62.4247   86.6473    9.3110 C.3     1  UNL1        0.0002
     14 C          61.9441   86.4212   10.7138 C.3     1  UNL1        0.0025
     15 C          62.1807   85.1003   11.3839 C.3     1  UNL1        0.0305
     16 O          63.5967   82.8232   10.0478 O.3     1  UNL1       -0.2256
     17 O          63.6080   81.7219   11.0662 O.3     1  UNL1       -0.2251
     18 C          64.1525   86.3781   15.6183 C.3     1  UNL1        0.0476
     19 C          64.6066   90.1662   14.5257 C.ar    1  UNL1        0.0529
     20 C          63.8069   90.8646   15.5852 C.ar    1  UNL1        0.0147
     21 C          63.1224   90.0675   16.6558 C.ar    1  UNL1        0.0010
     22 C          63.2376   88.5720   16.6669 C.ar    1  UNL1       -0.0041
     23 C          64.0373   87.8736   15.6073 C.ar    1  UNL1       -0.0192
     24 C          64.7217   88.6706   14.5367 C.ar    1  UNL1        0.0106
     25 C          66.6195   91.6031   13.7300 C.2     1  UNL1        0.4052
     26 O          67.2636   91.4460   15.0755 O.2     1  UNL1       -0.2261
     27 N          65.2910   90.9632   13.4550 N.am    1  UNL1       -0.2499
     28 H          64.8683   91.0664   12.5719 H       1  UNL1        0.1582
     29 O          67.3040   92.4002   12.6594 O.3     1  UNL1       -0.4417
     30 C          66.3008   94.2440   12.9654 C.3     1  UNL1        0.0437
     31 C          66.5085   93.3313   11.7933 C.3     1  UNL1        0.1378
     32 C          66.7162   92.4187   10.6212 C.3     1  UNL1        0.0437
     33 C          65.7129   94.2626   10.9273 C.3     1  UNL1        0.0437
@<TRIPOS>BOND
     1    30    31    1
     2    31    32    1
     3    31    33    1
     4    31    29    1
     5    29    25    1
     6    25    26    2
     7    25    27   am
     8    27    19    1
     9    19    20   ar
    10    20    21   ar
    11    21    22   ar
    12    22    23   ar
    13    23    18    1
    14    18     1    1
    15     1     2    1
    16     2     3   am
    17     3     4    2
    18     3     6    1
    19     6     7    1
    20     7     8    1
    21     7     9    1
    22     9    10    1
    23    10    11    1
    24    11    12    1
    25    12    13    1
    26    13    14    1
    27    14    15    1
    28    10    16    1
    29    16    17    1
    30    23    24   ar
    31    24    19   ar
    32    17     7    1
    33    15    10    1
    34    27    28    1
    35     2     5    1
@<TRIPOS>MOLECULE
*****
 33 35 0 0 0
SMALL
GASTEIGER

@<TRIPOS>ATOM
      1 C          61.7429   90.6997   10.3755 C.3     1  UNL1        0.0941
      2 N          61.2786   89.4336    9.7187 N.am    1  UNL1       -0.3039
      3 C          60.5485   88.3970   10.5203 C.2     1  UNL1        0.2250
      4 O          60.2828   88.6265   11.9785 O.2     1  UNL1       -0.2750
      5 H          61.4530   89.2830    8.7615 H       1  UNL1        0.1494
      6 C          60.0841   87.1309    9.8634 C.3     1  UNL1        0.1154
      7 C          61.0484   86.3009    9.0689 C.3     1  UNL1        0.1377
      8 C          60.3616   86.9178    7.8867 C.3     1  UNL1        0.0335
      9 C          61.5337   85.8575   10.4172 C.3     1  UNL1        0.0613
     10 C          62.6544   84.8824   10.2089 C.3     1  UNL1        0.1290
     11 C          63.7536   83.9283    9.8465 C.3     1  UNL1        0.0305
     12 C          64.5304   83.2343   10.9257 C.3     1  UNL1        0.0025
     13 C          64.2081   83.4944   12.3674 C.3     1  UNL1        0.0002
     14 C          63.1089   84.4485   12.7299 C.3     1  UNL1        0.0025
     15 C          62.3320   85.1425   11.6506 C.3     1  UNL1        0.0305
     16 O          62.8617   84.7232    8.7319 O.3     1  UNL1       -0.2256
     17 O          61.8691   85.5999    8.0273 O.3     1  UNL1       -0.2251
     18 C          63.1426   91.1908   10.1522 C.3     1  UNL1        0.0476
     19 C          64.8774   90.8171   13.7020 C.ar    1  UNL1        0.0529
     20 C          65.8434   91.9641   13.6675 C.ar    1  UNL1        0.0147
     21 C          65.9092   92.8533   12.4613 C.ar    1  UNL1        0.0010
     22 C          65.0089   92.5956   11.2895 C.ar    1  UNL1       -0.0041
     23 C          64.0428   91.4485   11.3240 C.ar    1  UNL1       -0.0192
     24 C          63.9771   90.5593   12.5301 C.ar    1  UNL1        0.0106
     25 C          63.4864   89.4218   15.3955 C.2     1  UNL1        0.4052
     26 O          62.2268   89.8050   14.6767 O.2     1  UNL1       -0.2261
     27 N          64.8116   89.9279   14.9082 N.am    1  UNL1       -0.2499
     28 H          65.6383   89.6764   15.3800 H       1  UNL1        0.1582
     29 O          63.4206   88.5326   16.6018 O.3     1  UNL1       -0.4417
     30 C          62.6498   86.8932   17.7055 C.3     1  UNL1        0.0437
     31 C          63.4349   87.0418   16.4361 C.3     1  UNL1        0.1378
     32 C          64.2200   87.1904   15.1666 C.3     1  UNL1        0.0437
     33 C          63.4492   85.5510   16.2705 C.3     1  UNL1        0.0437
@<TRIPOS>BOND
     1    30    31    1
     2    31    32    1
     3    31    33    1
     4    31    29    1
     5    29    25    1
     6    25    26    2
     7    25    27   am
     8    27    19    1
     9    19    20   ar
    10    20    21   ar
    11    21    22   ar
    12    22    23   ar
    13    23    18    1
    14    18     1    1
    15     1     2    1
    16     2     3   am
    17     3     4    2
    18     3     6    1
    19     6     7    1
    20     7     8    1
    21     7     9    1
    22     9    10    1
    23    10    11    1
    24    11    12    1
    25    12    13    1
    26    13    14    1
    27    14    15    1
    28    10    16    1
    29    16    17    1
    30    23    24   ar
    31    24    19   ar
    32    17     7    1
    33    15    10    1
    34    27    28    1
    35     2     5    1
@<TRIPOS>MOLECULE
*****
 33 35 0 0 0
SMALL
GASTEIGER

@<TRIPOS>ATOM
      1 C          62.1878   90.3484   11.3682 C.3     1  UNL1        0.0941
      2 N          61.6636   89.2724   10.4642 N.am    1  UNL1       -0.3039
      3 C          60.4749   88.4571   10.8795 C.2     1  UNL1        0.2250
      4 O          59.8105   88.7179   12.1987 O.2     1  UNL1       -0.2750
      5 H          62.0997   89.1012    9.5983 H       1  UNL1        0.1494
      6 C          59.9506   87.3810    9.9755 C.3     1  UNL1        0.1154
      7 C          60.8926   86.6210    9.0895 C.3     1  UNL1        0.1377
      8 C          60.2044   87.3658    7.9842 C.3     1  UNL1        0.0335
      9 C          61.3839   86.0352   10.3800 C.3     1  UNL1        0.0613
     10 C          62.4858   85.0687   10.0606 C.3     1  UNL1        0.1290
     11 C          63.5650   84.1392    9.5903 C.3     1  UNL1        0.0305
     12 C          64.3409   83.3268   10.5842 C.3     1  UNL1        0.0025
     13 C          64.0376   83.4440   12.0486 C.3     1  UNL1        0.0002
     14 C          62.9584   84.3735   12.5189 C.3     1  UNL1        0.0025
     15 C          62.1825   85.1859   11.5250 C.3     1  UNL1        0.0305
     16 O          62.6755   85.0573    8.5727 O.3     1  UNL1       -0.2256
     17 O          61.6908   86.0167    7.9725 O.3     1  UNL1       -0.2251
     18 C          63.0135   89.9849   12.5666 C.3     1  UNL1        0.0476
     19 C          65.7976   92.8107   12.4483 C.ar    1  UNL1        0.0529
     20 C          66.5660   92.5040   13.6994 C.ar    1  UNL1        0.0147
     21 C          66.1504   91.3576   14.5729 C.ar    1  UNL1        0.0010
     22 C          64.9662   90.5179   14.1953 C.ar    1  UNL1       -0.0041
     23 C          64.1977   90.8246   12.9441 C.ar    1  UNL1       -0.0192
     24 C          64.6133   91.9709   12.0707 C.ar    1  UNL1        0.0106
     25 C          67.4003   93.8174   10.6685 C.2     1  UNL1        0.4052
     26 O          68.1717   92.5314   10.6357 O.2     1  UNL1       -0.2261
     27 N          66.2132   93.9571   11.5748 N.am    1  UNL1       -0.2499
     28 H          65.7069   94.8011   11.5963 H       1  UNL1        0.1582
     29 O          67.8159   94.9638    9.7949 O.3     1  UNL1       -0.4417
     30 C          66.7799   96.6499   10.5588 C.3     1  UNL1        0.0437
     31 C          66.7831   95.9081    9.2551 C.3     1  UNL1        0.1378
     32 C          66.7862   95.1664    7.9513 C.3     1  UNL1        0.0437
     33 C          65.7502   96.8526    8.7153 C.3     1  UNL1        0.0437
@<TRIPOS>BOND
     1    30    31    1
     2    31    32    1
     3    31    33    1
     4    31    29    1
     5    29    25    1
     6    25    26    2
     7    25    27   am
     8    27    19    1
     9    19    20   ar
    10    20    21   ar
    11    21    22   ar
    12    22    23   ar
    13    23    18    1
    14    18     1    1
    15     1     2    1
    16     2     3   am
    17     3     4    2
    18     3     6    1
    19     6     7    1
    20     7     8    1
    21     7     9    1
    22     9    10    1
    23    10    11    1
    24    11    12    1
    25    12    13    1
    26    13    14    1
    27    14    15    1
    28    10    16    1
    29    16    17    1
    30    23    24   ar
    31    24    19   ar
    32    17     7    1
    33    15    10    1
    34    27    28    1
    35     2     5    1
