@<TRIPOS>MOLECULE
*****
 50 55 0 0 0
SMALL
GASTEIGER

@<TRIPOS>ATOM
      1 C          63.0822   83.0098   13.0264 C.ar    1  UNL1        0.1090
      2 C          62.2678   81.7537   13.1215 C.ar    1  UNL1        0.0405
      3 C          62.6142   80.7108   14.1424 C.ar    1  UNL1        0.1596
      4 F          61.7998   79.4547   14.2375 F       1  UNL1       -0.2025
      5 C          63.7749   80.9240   15.0683 C.ar    1  UNL1        0.1316
      6 N          64.5892   82.1801   14.9733 N.ar    1  UNL1       -0.2073
      7 C          64.2428   83.2230   13.9524 C.ar    1  UNL1        0.2341
      8 N          61.8062   85.1739   12.3642 N.am    1  UNL1       -0.3024
      9 C          62.7358   84.0527   12.0054 C.2     1  UNL1        0.2504
     10 O          63.3191   83.9744   10.6257 O.2     1  UNL1       -0.2700
     11 H          61.4234   85.2253   13.2697 H       1  UNL1        0.1497
     12 C          60.7673   88.3027    9.3012 C.3     1  UNL1        0.0720
     13 C          61.7804   87.2446    8.9786 C.3     1  UNL1        0.0213
     14 C          62.1267   86.2017    9.9996 C.3     1  UNL1        0.0213
     15 C          61.4599   86.2169   11.3432 C.3     1  UNL1        0.0720
     16 C          60.4468   87.2750   11.6658 C.3     1  UNL1        0.0213
     17 C          60.1005   88.3179   10.6448 C.3     1  UNL1        0.0213
     18 C          59.3857   89.0564    7.2341 C.2     1  UNL1        0.2653
     19 O          58.6966   87.7243    7.2089 O.2     1  UNL1       -0.2684
     20 N          60.4210   89.3456    8.2802 N.am    1  UNL1       -0.3012
     21 H          60.8732   90.2200    8.2968 H       1  UNL1        0.1497
     22 C          59.8119   92.7598    3.4945 C.3     1  UNL1        0.0518
     23 C          59.2353   91.8017    4.4942 C.ar    1  UNL1        0.0577
     24 C          60.0151   90.8699    5.3739 C.ar    1  UNL1        0.0398
     25 C          59.0393   90.0994    6.2131 C.ar    1  UNL1        0.1551
     26 N          57.6565   90.5549    5.8521 N.ar    1  UNL1       -0.1649
     27 N          57.7776   91.6070    4.7898 N.ar    1  UNL1       -0.2527
     28 C          56.6407   92.3362    4.1376 C.3     1  UNL1        0.1533
     29 O          65.0572   84.4791   13.8573 O.3     1  UNL1       -0.4360
     30 C          64.4970   85.7760   14.3616 C.ar    1  UNL1        0.1472
     31 C          63.9356   85.8611   15.7500 C.ar    1  UNL1        0.0376
     32 C          63.3755   87.1580   16.2543 C.ar    1  UNL1        0.0031
     33 C          63.3767   88.3698   15.3701 C.ar    1  UNL1        0.0002
     34 C          63.9381   88.2847   13.9818 C.ar    1  UNL1        0.0028
     35 C          64.4983   86.9878   13.4775 C.ar    1  UNL1        0.0375
     36 C          63.9394   89.4965   13.0976 C.ar    1  UNL1       -0.0024
     37 C          63.1438   89.4978   11.8260 C.ar    1  UNL1        0.0028
     38 C          63.1450   90.7095   10.9419 C.ar    1  UNL1        0.0366
     39 C          63.9418   91.9199   11.3294 C.ar    1  UNL1        0.1334
     40 O          63.9430   93.1316   10.4452 O.3     1  UNL1       -0.5055
     41 C          64.7373   91.9185   12.6010 C.ar    1  UNL1        0.0337
     42 C          64.7361   90.7068   13.4852 C.ar    1  UNL1       -0.0031
     43 H          63.4461   93.1325    9.6509 H       1  UNL1        0.2922
     44 C          65.5316   90.7054   14.7568 C.3     1  UNL1        0.0994
     45 N          66.7361   91.5895   14.8889 N.3     1  UNL1       -0.2646
     46 C          67.8808   91.4458   13.9301 C.3     1  UNL1        0.1049
     47 C          69.0853   92.3299   14.0622 C.3     1  UNL1        0.1595
     48 O          69.1452   93.3577   15.1531 O.3     1  UNL1       -0.3508
     49 C          68.0007   93.5015   16.1119 C.3     1  UNL1        0.1595
     50 C          66.7961   92.6174   15.9798 C.3     1  UNL1        0.1049
@<TRIPOS>BOND
     1    22    23    1
     2    23    24   ar
     3    24    25   ar
     4    25    18    1
     5    18    19    2
     6    18    20   am
     7    12    20    1
     8    12    13    1
     9    13    14    1
    10    14    15    1
    11    15     8    1
    12     8     9   am
    13     9    10    2
    14     9     1    1
    15     1     2   ar
    16     2     3   ar
    17     3     4    1
    18     3     5   ar
    19     5     6   ar
    20     6     7   ar
    21     7    29    1
    22    29    30    1
    23    30    31   ar
    24    31    32   ar
    25    32    33   ar
    26    33    34   ar
    27    34    36    1
    28    36    37   ar
    29    37    38   ar
    30    38    39   ar
    31    39    40    1
    32    39    41   ar
    33    41    42   ar
    34    42    44    1
    35    44    45    1
    36    45    46    1
    37    46    47    1
    38    47    48    1
    39    48    49    1
    40    49    50    1
    41    34    35   ar
    42    15    16    1
    43    16    17    1
    44    25    26   ar
    45    26    27   ar
    46    27    28    1
    47    27    23   ar
    48    17    12    1
    49     7     1   ar
    50    35    30   ar
    51    42    36   ar
    52    50    45    1
    53    20    21    1
    54     8    11    1
    55    40    43    1
@<TRIPOS>MOLECULE
*****
 50 55 0 0 0
SMALL
GASTEIGER

@<TRIPOS>ATOM
      1 C          63.0099   82.8577   13.3136 C.ar    1  UNL1        0.1090
      2 C          62.2302   81.5765   13.3322 C.ar    1  UNL1        0.0405
      3 C          62.6980   80.4260   14.1733 C.ar    1  UNL1        0.1596
      4 F          61.9183   79.1447   14.1920 F       1  UNL1       -0.2025
      5 C          63.9456   80.5568   14.9958 C.ar    1  UNL1        0.1316
      6 N          64.7253   81.8381   14.9772 N.ar    1  UNL1       -0.2073
      7 C          64.2575   82.9885   14.1360 C.ar    1  UNL1        0.2341
      8 N          62.6284   83.9280   10.9771 N.am    1  UNL1       -0.3024
      9 C          62.5421   84.0083   12.4725 C.2     1  UNL1        0.2504
     10 O          61.9879   85.2391   13.1267 O.2     1  UNL1       -0.2700
     11 H          62.9922   83.1202   10.5477 H       1  UNL1        0.1497
     12 C          61.2250   87.3795    8.4537 C.3     1  UNL1        0.0720
     13 C          62.2072   86.3929    7.8954 C.3     1  UNL1        0.0213
     14 C          62.6750   85.2425    8.7365 C.3     1  UNL1        0.0213
     15 C          62.1606   85.0786   10.1360 C.3     1  UNL1        0.0720
     16 C          61.1783   86.0652   10.6943 C.3     1  UNL1        0.0213
     17 C          60.7105   87.2156    9.8532 C.3     1  UNL1        0.0213
     18 C          59.3408   88.5723    7.1206 C.2     1  UNL1        0.2653
     19 O          58.3922   87.4640    7.4698 O.2     1  UNL1       -0.2684
     20 N          60.7572   88.5301    7.6126 N.am    1  UNL1       -0.3012
     21 H          61.3797   89.2575    7.3834 H       1  UNL1        0.1497
     22 C          59.3249   92.8305    3.9984 C.3     1  UNL1        0.0518
     23 C          58.8657   91.6801    4.8443 C.ar    1  UNL1        0.0577
     24 C          59.7511   90.7013    5.5573 C.ar    1  UNL1        0.0398
     25 C          58.8729   89.7229    6.2795 C.ar    1  UNL1        0.1551
     26 N          57.4450   90.0968    6.0129 N.ar    1  UNL1       -0.1649
     27 N          57.4405   91.3065    5.1260 N.ar    1  UNL1       -0.2527
     28 C          56.2244   92.0176    4.6110 C.3     1  UNL1        0.1533
     29 O          65.0372   84.2699   14.1174 O.3     1  UNL1       -0.4360
     30 C          64.4929   85.4891   14.8009 C.ar    1  UNL1        0.1472
     31 C          63.6543   85.3448   16.0363 C.ar    1  UNL1        0.0376
     32 C          63.1100   86.5640   16.7198 C.ar    1  UNL1        0.0031
     33 C          63.4042   87.9275   16.1680 C.ar    1  UNL1        0.0002
     34 C          64.2428   88.0717   14.9327 C.ar    1  UNL1        0.0028
     35 C          64.7871   86.8525   14.2492 C.ar    1  UNL1        0.0375
     36 C          64.5370   89.4352   14.3809 C.ar    1  UNL1       -0.0024
     37 C          65.5169   90.3312   15.0787 C.ar    1  UNL1        0.0028
     38 C          65.8112   91.6946   14.5270 C.ar    1  UNL1        0.0366
     39 C          65.1256   92.1620   13.2774 C.ar    1  UNL1        0.1334
     40 O          65.4198   93.5255   12.7256 O.3     1  UNL1       -0.5055
     41 C          64.1457   91.2660   12.5796 C.ar    1  UNL1        0.0337
     42 C          63.8514   89.9025   13.1314 C.ar    1  UNL1       -0.0031
     43 H          66.0319   94.0852   13.1615 H       1  UNL1        0.2922
     44 C          62.8715   89.0065   12.4336 C.3     1  UNL1        0.0994
     45 N          61.4839   89.4957   12.1417 N.3     1  UNL1       -0.2646
     46 C          61.2439   90.4285   10.9917 C.3     1  UNL1        0.1049
     47 C          59.8563   90.9177   10.6999 C.3     1  UNL1        0.1595
     48 O          58.7087   90.4742   11.5579 O.3     1  UNL1       -0.3508
     49 C          58.9487   89.5414   12.7078 C.3     1  UNL1        0.1595
     50 C          60.3363   89.0522   12.9997 C.3     1  UNL1        0.1049
@<TRIPOS>BOND
     1    22    23    1
     2    23    24   ar
     3    24    25   ar
     4    25    18    1
     5    18    19    2
     6    18    20   am
     7    12    20    1
     8    12    13    1
     9    13    14    1
    10    14    15    1
    11    15     8    1
    12     8     9   am
    13     9    10    2
    14     9     1    1
    15     1     2   ar
    16     2     3   ar
    17     3     4    1
    18     3     5   ar
    19     5     6   ar
    20     6     7   ar
    21     7    29    1
    22    29    30    1
    23    30    31   ar
    24    31    32   ar
    25    32    33   ar
    26    33    34   ar
    27    34    36    1
    28    36    37   ar
    29    37    38   ar
    30    38    39   ar
    31    39    40    1
    32    39    41   ar
    33    41    42   ar
    34    42    44    1
    35    44    45    1
    36    45    46    1
    37    46    47    1
    38    47    48    1
    39    48    49    1
    40    49    50    1
    41    34    35   ar
    42    15    16    1
    43    16    17    1
    44    25    26   ar
    45    26    27   ar
    46    27    28    1
    47    27    23   ar
    48    17    12    1
    49     7     1   ar
    50    35    30   ar
    51    42    36   ar
    52    50    45    1
    53    20    21    1
    54     8    11    1
    55    40    43    1
@<TRIPOS>MOLECULE
*****
 50 55 0 0 0
SMALL
GASTEIGER

@<TRIPOS>ATOM
      1 C          62.1571   86.0472   10.7434 C.ar    1  UNL1        0.1090
      2 C          62.6223   84.6449   10.4843 C.ar    1  UNL1        0.0405
      3 C          62.9587   83.7419   11.6338 C.ar    1  UNL1        0.1596
      4 F          63.4240   82.3396   11.3748 F       1  UNL1       -0.2025
      5 C          62.8299   84.2412   13.0424 C.ar    1  UNL1        0.1316
      6 N          62.3647   85.6435   13.3015 N.ar    1  UNL1       -0.2073
      7 C          62.0283   86.5465   12.1520 C.ar    1  UNL1        0.2341
      8 N          60.4334   87.5037    9.4560 N.am    1  UNL1       -0.3024
      9 C          61.8207   86.9503    9.5938 C.2     1  UNL1        0.2504
     10 O          62.8716   87.2998    8.5822 O.2     1  UNL1       -0.2700
     11 H          59.7436   87.2743   10.1199 H       1  UNL1        0.1497
     12 C          59.4241   90.2127    6.0074 C.3     1  UNL1        0.0720
     13 C          59.0950   88.7511    5.9342 C.3     1  UNL1        0.0213
     14 C          59.4315   87.8482    7.0837 C.3     1  UNL1        0.0213
     15 C          60.0970   88.4068    8.3064 C.3     1  UNL1        0.0720
     16 C          60.4261   89.8684    8.3796 C.3     1  UNL1        0.0213
     17 C          60.0896   90.7713    7.2301 C.3     1  UNL1        0.0213
     18 C          60.1845   91.7849    4.0838 C.2     1  UNL1        0.2653
     19 O          61.6178   91.5509    4.4592 O.2     1  UNL1       -0.2684
     20 N          59.0877   91.1158    4.8579 N.am    1  UNL1       -0.3012
     21 H          58.1470   91.2694    4.6115 H       1  UNL1        0.1497
     22 C          58.4007   93.5463   -0.5634 C.3     1  UNL1        0.0518
     23 C          59.0281   93.4975    0.7982 C.ar    1  UNL1        0.0577
     24 C          59.1613   92.2802    1.6646 C.ar    1  UNL1        0.0398
     25 C          59.8481   92.6879    2.9343 C.ar    1  UNL1        0.1551
     26 N          60.1394   94.1571    2.8526 N.ar    1  UNL1       -0.1649
     27 N          59.6327   94.6575    1.5325 N.ar    1  UNL1       -0.2527
     28 C          59.7158   96.0698    1.0342 C.3     1  UNL1        0.1533
     29 O          61.5630   87.9488   12.4110 O.3     1  UNL1       -0.4360
     30 C          62.4272   89.1103   12.0183 C.ar    1  UNL1        0.1472
     31 C          62.3800   89.6397   10.6156 C.ar    1  UNL1        0.0376
     32 C          63.2441   90.8012   10.2229 C.ar    1  UNL1        0.0031
     33 C          64.1555   91.4332   11.2329 C.ar    1  UNL1        0.0002
     34 C          64.2027   90.9038   12.6355 C.ar    1  UNL1        0.0028
     35 C          63.3385   89.7423   13.0282 C.ar    1  UNL1        0.0375
     36 C          65.1140   91.5358   13.6456 C.ar    1  UNL1       -0.0024
     37 C          64.7467   91.5214   15.0998 C.ar    1  UNL1        0.0028
     38 C          65.6580   92.1533   16.1098 C.ar    1  UNL1        0.0366
     39 C          66.9366   92.7997   15.6655 C.ar    1  UNL1        0.1334
     40 O          67.8479   93.4318   16.6756 O.3     1  UNL1       -0.5055
     41 C          67.3038   92.8142   14.2113 C.ar    1  UNL1        0.0337
     42 C          66.3926   92.1822   13.2013 C.ar    1  UNL1       -0.0031
     43 H          67.6185   93.4228   17.5840 H       1  UNL1        0.2922
     44 C          66.7598   92.1967   11.7470 C.3     1  UNL1        0.0994
     45 N          66.8844   93.5015   11.0178 N.3     1  UNL1       -0.2646
     46 C          67.6297   93.5660    9.7176 C.3     1  UNL1        0.1049
     47 C          67.7543   94.8709    8.9885 C.3     1  UNL1        0.1595
     48 O          67.1336   96.1113    9.5595 O.3     1  UNL1       -0.3508
     49 C          66.3884   96.0469   10.8596 C.3     1  UNL1        0.1595
     50 C          66.2637   94.7420   11.5888 C.3     1  UNL1        0.1049
@<TRIPOS>BOND
     1    22    23    1
     2    23    24   ar
     3    24    25   ar
     4    25    18    1
     5    18    19    2
     6    18    20   am
     7    12    20    1
     8    12    13    1
     9    13    14    1
    10    14    15    1
    11    15     8    1
    12     8     9   am
    13     9    10    2
    14     9     1    1
    15     1     2   ar
    16     2     3   ar
    17     3     4    1
    18     3     5   ar
    19     5     6   ar
    20     6     7   ar
    21     7    29    1
    22    29    30    1
    23    30    31   ar
    24    31    32   ar
    25    32    33   ar
    26    33    34   ar
    27    34    36    1
    28    36    37   ar
    29    37    38   ar
    30    38    39   ar
    31    39    40    1
    32    39    41   ar
    33    41    42   ar
    34    42    44    1
    35    44    45    1
    36    45    46    1
    37    46    47    1
    38    47    48    1
    39    48    49    1
    40    49    50    1
    41    34    35   ar
    42    15    16    1
    43    16    17    1
    44    25    26   ar
    45    26    27   ar
    46    27    28    1
    47    27    23   ar
    48    17    12    1
    49     7     1   ar
    50    35    30   ar
    51    42    36   ar
    52    50    45    1
    53    20    21    1
    54     8    11    1
    55    40    43    1
@<TRIPOS>MOLECULE
*****
 50 55 0 0 0
SMALL
GASTEIGER

@<TRIPOS>ATOM
      1 C          61.3704   86.9432    9.7420 C.ar    1  UNL1        0.1090
      2 C          61.6815   85.4765    9.6983 C.ar    1  UNL1        0.0405
      3 C          62.1387   84.7696   10.9397 C.ar    1  UNL1        0.1596
      4 F          62.4498   83.3028   10.8960 F       1  UNL1       -0.2025
      5 C          62.2848   85.5293   12.2248 C.ar    1  UNL1        0.1316
      6 N          61.9736   86.9960   12.2685 N.ar    1  UNL1       -0.2073
      7 C          61.5164   87.7030   11.0271 C.ar    1  UNL1        0.2341
      8 N          60.5297   89.0992    8.5608 N.am    1  UNL1       -0.3024
      9 C          60.9131   87.6503    8.5006 C.2     1  UNL1        0.2504
     10 O          60.8393   86.9084    7.1990 O.2     1  UNL1       -0.2700
     11 H          60.5782   89.5861    9.4151 H       1  UNL1        0.1497
     12 C          59.1582   91.2203    4.8366 C.3     1  UNL1        0.0720
     13 C          60.6202   91.1510    5.1649 C.3     1  UNL1        0.0213
     14 C          61.0773   90.4440    6.4063 C.3     1  UNL1        0.0213
     15 C          60.0725   89.8062    7.3193 C.3     1  UNL1        0.0720
     16 C          58.6106   89.8756    6.9910 C.3     1  UNL1        0.0213
     17 C          58.1534   90.5826    5.7496 C.3     1  UNL1        0.0213
     18 C          59.7028   92.5934    2.6992 C.2     1  UNL1        0.2653
     19 O          61.1619   92.5524    3.0447 O.2     1  UNL1       -0.2684
     20 N          58.7010   91.9274    3.5951 N.am    1  UNL1       -0.3012
     21 H          57.7433   91.9543    3.3684 H       1  UNL1        0.1497
     22 C          57.6692   93.5392   -2.0810 C.3     1  UNL1        0.0518
     23 C          58.3108   93.7351   -0.7394 C.ar    1  UNL1        0.0577
     24 C          58.6028   92.6589    0.2640 C.ar    1  UNL1        0.0398
     25 C          59.2456   93.3004    1.4578 C.ar    1  UNL1        0.1551
     26 N          59.3509   94.7730    1.1923 N.ar    1  UNL1       -0.1649
     27 N          58.7732   95.0417   -0.1656 N.ar    1  UNL1       -0.2527
     28 C          58.6751   96.3815   -0.8326 C.3     1  UNL1        0.1533
     29 O          61.2053   89.1697   11.0708 O.3     1  UNL1       -0.4360
     30 C          62.3137   90.1750   10.9658 C.ar    1  UNL1        0.1472
     31 C          62.4864   90.9721    9.7068 C.ar    1  UNL1        0.0376
     32 C          63.5948   91.9773    9.6018 C.ar    1  UNL1        0.0031
     33 C          64.5304   92.1854   10.7557 C.ar    1  UNL1        0.0002
     34 C          64.3576   91.3883   12.0146 C.ar    1  UNL1        0.0028
     35 C          63.2492   90.3831   12.1196 C.ar    1  UNL1        0.0375
     36 C          65.2932   91.5964   13.1685 C.ar    1  UNL1       -0.0024
     37 C          66.5936   92.3143   12.9596 C.ar    1  UNL1        0.0028
     38 C          67.5292   92.5224   14.1134 C.ar    1  UNL1        0.0366
     39 C          67.1644   92.0126   15.4761 C.ar    1  UNL1        0.1334
     40 O          68.1000   92.2207   16.6300 O.3     1  UNL1       -0.5055
     41 C          65.8640   91.2948   15.6850 C.ar    1  UNL1        0.0337
     42 C          64.9284   91.0867   14.5312 C.ar    1  UNL1       -0.0031
     43 H          68.9123   92.6692   16.4995 H       1  UNL1        0.2922
     44 C          63.6280   90.3688   14.7401 C.3     1  UNL1        0.0994
     45 N          63.6171   88.9997   15.3526 N.3     1  UNL1       -0.2646
     46 C          62.9469   88.7753   16.6758 C.3     1  UNL1        0.1049
     47 C          62.9360   87.4061   17.2883 C.3     1  UNL1        0.1595
     48 O          63.5952   86.2613   16.5778 O.3     1  UNL1       -0.3508
     49 C          64.2654   86.4856   15.2548 C.3     1  UNL1        0.1595
     50 C          64.2763   87.8548   14.6421 C.3     1  UNL1        0.1049
@<TRIPOS>BOND
     1    22    23    1
     2    23    24   ar
     3    24    25   ar
     4    25    18    1
     5    18    19    2
     6    18    20   am
     7    12    20    1
     8    12    13    1
     9    13    14    1
    10    14    15    1
    11    15     8    1
    12     8     9   am
    13     9    10    2
    14     9     1    1
    15     1     2   ar
    16     2     3   ar
    17     3     4    1
    18     3     5   ar
    19     5     6   ar
    20     6     7   ar
    21     7    29    1
    22    29    30    1
    23    30    31   ar
    24    31    32   ar
    25    32    33   ar
    26    33    34   ar
    27    34    36    1
    28    36    37   ar
    29    37    38   ar
    30    38    39   ar
    31    39    40    1
    32    39    41   ar
    33    41    42   ar
    34    42    44    1
    35    44    45    1
    36    45    46    1
    37    46    47    1
    38    47    48    1
    39    48    49    1
    40    49    50    1
    41    34    35   ar
    42    15    16    1
    43    16    17    1
    44    25    26   ar
    45    26    27   ar
    46    27    28    1
    47    27    23   ar
    48    17    12    1
    49     7     1   ar
    50    35    30   ar
    51    42    36   ar
    52    50    45    1
    53    20    21    1
    54     8    11    1
    55    40    43    1
@<TRIPOS>MOLECULE
*****
 50 55 0 0 0
SMALL
GASTEIGER

@<TRIPOS>ATOM
      1 C          59.9954   89.2427    8.7324 C.ar    1  UNL1        0.1090
      2 C          59.4826   90.0355    7.5669 C.ar    1  UNL1        0.0405
      3 C          58.6102   89.3785    6.5387 C.ar    1  UNL1        0.1596
      4 F          58.0974   90.1713    5.3731 F       1  UNL1       -0.2025
      5 C          58.2505   87.9288    6.6761 C.ar    1  UNL1        0.1316
      6 N          58.7632   87.1360    7.8416 N.ar    1  UNL1       -0.2073
      7 C          59.6357   87.7930    8.8698 C.ar    1  UNL1        0.2341
      8 N          62.3221   89.5428    9.8489 N.am    1  UNL1       -0.3024
      9 C          60.8679   89.8997    9.7607 C.2     1  UNL1        0.2504
     10 O          60.2861   90.9135   10.7007 O.2     1  UNL1       -0.2700
     11 H          62.7040   88.8774    9.2319 H       1  UNL1        0.1497
     12 C          64.9396   91.5136   12.9334 C.3     1  UNL1        0.0720
     13 C          64.7840   92.1325   11.5760 C.3     1  UNL1        0.0213
     14 C          63.9115   91.4755   10.5478 C.3     1  UNL1        0.0213
     15 C          63.1946   90.1997   10.8771 C.3     1  UNL1        0.0720
     16 C          63.3502   89.5809   12.2346 C.3     1  UNL1        0.0213
     17 C          64.2227   90.2378   13.2627 C.3     1  UNL1        0.0213
     18 C          67.2992   92.2084   13.7698 C.2     1  UNL1        0.2653
     19 O          67.9140   91.5893   12.5496 O.2     1  UNL1       -0.2684
     20 N          65.8121   92.1706   13.9617 N.am    1  UNL1       -0.3012
     21 H          65.4086   92.5769   14.7626 H       1  UNL1        0.1497
     22 C          70.9107   92.9675   17.5463 C.3     1  UNL1        0.0518
     23 C          69.8318   93.2142   16.5339 C.ar    1  UNL1        0.0577
     24 C          69.1981   92.1803   15.6509 C.ar    1  UNL1        0.0398
     25 C          68.1717   92.8653   14.7980 C.ar    1  UNL1        0.1551
     26 N          68.1710   94.3225   15.1539 N.ar    1  UNL1       -0.1649
     27 N          69.1969   94.5381   16.2267 N.ar    1  UNL1       -0.2527
     28 C          69.5297   95.8477   16.8780 C.3     1  UNL1        0.1533
     29 O          60.1484   87.0002   10.0354 O.3     1  UNL1       -0.4360
     30 C          61.3069   86.0646    9.8546 C.ar    1  UNL1        0.1472
     31 C          62.1844   86.1827    8.6438 C.ar    1  UNL1        0.0376
     32 C          63.3429   85.2471    8.4630 C.ar    1  UNL1        0.0031
     33 C          63.6238   84.1935    9.4930 C.ar    1  UNL1        0.0002
     34 C          62.7464   84.0755   10.7038 C.ar    1  UNL1        0.0028
     35 C          61.5879   85.0110   10.8846 C.ar    1  UNL1        0.0375
     36 C          63.0273   83.0218   11.7339 C.ar    1  UNL1       -0.0024
     37 C          62.6196   81.6002   11.4832 C.ar    1  UNL1        0.0028
     38 C          62.9005   80.5466   12.5131 C.ar    1  UNL1        0.0366
     39 C          63.5892   80.9146   13.7938 C.ar    1  UNL1        0.1334
     40 O          63.8701   79.8609   14.8239 O.3     1  UNL1       -0.5055
     41 C          63.9969   82.3361   14.0446 C.ar    1  UNL1        0.0337
     42 C          63.7160   83.3898   13.0146 C.ar    1  UNL1       -0.0031
     43 H          63.6154   78.9729   14.6673 H       1  UNL1        0.2922
     44 C          64.1238   84.8113   13.2653 C.3     1  UNL1        0.0994
     45 N          63.6772   85.5104   14.5150 N.3     1  UNL1       -0.2646
     46 C          64.1483   86.9051   14.8034 C.3     1  UNL1        0.1049
     47 C          63.7017   87.6041   16.0532 C.3     1  UNL1        0.1595
     48 O          62.7841   86.9086   17.0146 O.3     1  UNL1       -0.3508
     49 C          62.3131   85.5140   16.7262 C.3     1  UNL1        0.1595
     50 C          62.7596   84.8148   15.4764 C.3     1  UNL1        0.1049
@<TRIPOS>BOND
     1    22    23    1
     2    23    24   ar
     3    24    25   ar
     4    25    18    1
     5    18    19    2
     6    18    20   am
     7    12    20    1
     8    12    13    1
     9    13    14    1
    10    14    15    1
    11    15     8    1
    12     8     9   am
    13     9    10    2
    14     9     1    1
    15     1     2   ar
    16     2     3   ar
    17     3     4    1
    18     3     5   ar
    19     5     6   ar
    20     6     7   ar
    21     7    29    1
    22    29    30    1
    23    30    31   ar
    24    31    32   ar
    25    32    33   ar
    26    33    34   ar
    27    34    36    1
    28    36    37   ar
    29    37    38   ar
    30    38    39   ar
    31    39    40    1
    32    39    41   ar
    33    41    42   ar
    34    42    44    1
    35    44    45    1
    36    45    46    1
    37    46    47    1
    38    47    48    1
    39    48    49    1
    40    49    50    1
    41    34    35   ar
    42    15    16    1
    43    16    17    1
    44    25    26   ar
    45    26    27   ar
    46    27    28    1
    47    27    23   ar
    48    17    12    1
    49     7     1   ar
    50    35    30   ar
    51    42    36   ar
    52    50    45    1
    53    20    21    1
    54     8    11    1
    55    40    43    1
@<TRIPOS>MOLECULE
*****
 50 55 0 0 0
SMALL
GASTEIGER

@<TRIPOS>ATOM
      1 C          59.7832   89.4388    8.5214 C.ar    1  UNL1        0.1090
      2 C          59.5234   90.5360    9.5107 C.ar    1  UNL1        0.0405
      3 C          59.4586   90.2243   10.9765 C.ar    1  UNL1        0.1596
      4 F          59.1987   91.3215   11.9658 F       1  UNL1       -0.2025
      5 C          59.6536   88.8155   11.4530 C.ar    1  UNL1        0.1316
      6 N          59.9135   87.7183   10.4638 N.ar    1  UNL1       -0.2073
      7 C          59.9783   88.0300    8.9980 C.ar    1  UNL1        0.2341
      8 N          60.4014   91.0654    6.5921 N.am    1  UNL1       -0.3024
      9 C          59.8480   89.7505    7.0555 C.2     1  UNL1        0.2504
     10 O          59.3594   88.7472    6.0532 O.2     1  UNL1       -0.2700
     11 H          60.7221   91.7238    7.2500 H       1  UNL1        0.1497
     12 C          60.5960   92.0002    2.1946 C.3     1  UNL1        0.0720
     13 C          61.7509   91.3207    2.8686 C.3     1  UNL1        0.0213
     14 C          61.6860   91.0091    4.3344 C.3     1  UNL1        0.0213
     15 C          60.4662   91.3770    5.1262 C.3     1  UNL1        0.0720
     16 C          59.3113   92.0565    4.4521 C.3     1  UNL1        0.0213
     17 C          59.3762   92.3681    2.9863 C.3     1  UNL1        0.0213
     18 C          61.6652   93.3009    0.2159 C.2     1  UNL1        0.2653
     19 O          62.6048   93.9783    1.1689 O.2     1  UNL1       -0.2684
     20 N          60.6608   92.3119    0.7287 N.am    1  UNL1       -0.3012
     21 H          60.0441   91.8673    0.1032 H       1  UNL1        0.1497
     22 C          63.4668   93.9549   -4.7043 C.3     1  UNL1        0.0518
     23 C          62.5581   93.9131   -3.5116 C.ar    1  UNL1        0.0577
     24 C          62.9466   93.5061   -2.1210 C.ar    1  UNL1        0.0398
     25 C          61.7300   93.6125   -1.2500 C.ar    1  UNL1        0.1551
     26 N          60.5897   94.0853   -2.1022 N.ar    1  UNL1       -0.1649
     27 N          61.1014   94.2711   -3.4999 N.ar    1  UNL1       -0.2527
     28 C          60.2978   94.7335   -4.6788 C.3     1  UNL1        0.1533
     29 O          60.2382   86.9328    8.0086 O.3     1  UNL1       -0.4360
     30 C          61.3523   85.9570    8.2464 C.ar    1  UNL1        0.1472
     31 C          62.0568   85.3249    7.0826 C.ar    1  UNL1        0.0376
     32 C          63.1709   84.3491    7.3204 C.ar    1  UNL1        0.0031
     33 C          63.5806   84.0054    8.7219 C.ar    1  UNL1        0.0002
     34 C          62.8761   84.6374    9.8855 C.ar    1  UNL1        0.0028
     35 C          61.7620   85.6132    9.6478 C.ar    1  UNL1        0.0375
     36 C          63.2857   84.2937   11.2870 C.ar    1  UNL1       -0.0024
     37 C          63.8263   82.9293   11.5971 C.ar    1  UNL1        0.0028
     38 C          64.2359   82.5855   12.9985 C.ar    1  UNL1        0.0366
     39 C          64.1049   83.6061   14.0898 C.ar    1  UNL1        0.1334
     40 O          64.5146   83.2624   15.4913 O.3     1  UNL1       -0.5055
     41 C          63.5643   84.9706   13.7798 C.ar    1  UNL1        0.0337
     42 C          63.1547   85.3143   12.3784 C.ar    1  UNL1       -0.0031
     43 H          64.8523   82.4101   15.6850 H       1  UNL1        0.2922
     44 C          62.6141   86.6787   12.0683 C.3     1  UNL1        0.0994
     45 N          63.2352   87.8918   12.6949 N.3     1  UNL1       -0.2646
     46 C          63.1286   89.2248   12.0155 C.3     1  UNL1        0.1049
     47 C          63.7497   90.4379   12.6421 C.3     1  UNL1        0.1595
     48 O          64.4775   90.3179   13.9482 O.3     1  UNL1       -0.3508
     49 C          64.5841   88.9849   14.6277 C.3     1  UNL1        0.1595
     50 C          63.9630   87.7718   14.0011 C.3     1  UNL1        0.1049
@<TRIPOS>BOND
     1    22    23    1
     2    23    24   ar
     3    24    25   ar
     4    25    18    1
     5    18    19    2
     6    18    20   am
     7    12    20    1
     8    12    13    1
     9    13    14    1
    10    14    15    1
    11    15     8    1
    12     8     9   am
    13     9    10    2
    14     9     1    1
    15     1     2   ar
    16     2     3   ar
    17     3     4    1
    18     3     5   ar
    19     5     6   ar
    20     6     7   ar
    21     7    29    1
    22    29    30    1
    23    30    31   ar
    24    31    32   ar
    25    32    33   ar
    26    33    34   ar
    27    34    36    1
    28    36    37   ar
    29    37    38   ar
    30    38    39   ar
    31    39    40    1
    32    39    41   ar
    33    41    42   ar
    34    42    44    1
    35    44    45    1
    36    45    46    1
    37    46    47    1
    38    47    48    1
    39    48    49    1
    40    49    50    1
    41    34    35   ar
    42    15    16    1
    43    16    17    1
    44    25    26   ar
    45    26    27   ar
    46    27    28    1
    47    27    23   ar
    48    17    12    1
    49     7     1   ar
    50    35    30   ar
    51    42    36   ar
    52    50    45    1
    53    20    21    1
    54     8    11    1
    55    40    43    1
@<TRIPOS>MOLECULE
*****
 50 55 0 0 0
SMALL
GASTEIGER

@<TRIPOS>ATOM
      1 C          62.2593   85.2725   10.6934 C.ar    1  UNL1        0.1090
      2 C          62.6460   83.8622   10.3594 C.ar    1  UNL1        0.0405
      3 C          62.9935   82.9000   11.4563 C.ar    1  UNL1        0.1596
      4 F          63.3802   81.4897   11.1224 F       1  UNL1       -0.2025
      5 C          62.9544   83.3481   12.8873 C.ar    1  UNL1        0.1316
      6 N          62.5677   84.7584   13.2213 N.ar    1  UNL1       -0.2073
      7 C          62.2202   85.7205   12.1244 C.ar    1  UNL1        0.2341
      8 N          60.6987   87.1081    9.7213 N.am    1  UNL1       -0.3024
      9 C          61.9118   86.2348    9.5964 C.2     1  UNL1        0.2504
     10 O          62.7774   86.3236    8.3746 O.2     1  UNL1       -0.2700
     11 H          60.1306   87.0497   10.5232 H       1  UNL1        0.1497
     12 C          59.6561   89.9947    6.4304 C.3     1  UNL1        0.0720
     13 C          59.3143   88.5411    6.2890 C.3     1  UNL1        0.0213
     14 C          59.6618   87.5789    7.3860 C.3     1  UNL1        0.0213
     15 C          60.3512   88.0704    8.6243 C.3     1  UNL1        0.0720
     16 C          60.6929   89.5240    8.7656 C.3     1  UNL1        0.0213
     17 C          60.3454   90.4862    7.6686 C.3     1  UNL1        0.0213
     18 C          60.3904   91.5254    4.4636 C.2     1  UNL1        0.2653
     19 O          61.8198   91.1315    4.6907 O.2     1  UNL1       -0.2684
     20 N          59.3086   90.9570    5.3334 N.am    1  UNL1       -0.3012
     21 H          58.3704   91.2156    5.1843 H       1  UNL1        0.1497
     22 C          58.5541   93.5301   -0.0630 C.3     1  UNL1        0.0518
     23 C          59.1988   93.4091    1.2859 C.ar    1  UNL1        0.0577
     24 C          59.3382   92.1483    2.0866 C.ar    1  UNL1        0.0398
     25 C          60.0429   92.4876    3.3666 C.ar    1  UNL1        0.1551
     26 N          60.3390   93.9581    3.3570 N.ar    1  UNL1       -0.1649
     27 N          59.8173   94.5276    2.0711 N.ar    1  UNL1       -0.2527
     28 C          59.8997   95.9634    1.6452 C.3     1  UNL1        0.1533
     29 O          61.8335   87.1309   12.4584 O.3     1  UNL1       -0.4360
     30 C          62.8494   88.0696   13.0387 C.ar    1  UNL1        0.1472
     31 C          63.4903   87.7584   14.3588 C.ar    1  UNL1        0.0376
     32 C          64.5061   88.6971   14.9392 C.ar    1  UNL1        0.0031
     33 C          64.8811   89.9471   14.1995 C.ar    1  UNL1        0.0002
     34 C          64.2402   90.2583   12.8796 C.ar    1  UNL1        0.0028
     35 C          63.2243   89.3196   12.2992 C.ar    1  UNL1        0.0375
     36 C          64.6151   91.5083   12.1399 C.ar    1  UNL1       -0.0024
     37 C          64.1300   91.7236   10.7369 C.ar    1  UNL1        0.0028
     38 C          64.5049   92.9735    9.9973 C.ar    1  UNL1        0.0366
     39 C          65.3649   94.0081   10.6606 C.ar    1  UNL1        0.1334
     40 O          65.7398   95.2581    9.9209 O.3     1  UNL1       -0.5055
     41 C          65.8500   93.7928   12.0636 C.ar    1  UNL1        0.0337
     42 C          65.4751   92.5429   12.8032 C.ar    1  UNL1       -0.0031
     43 H          65.4368   95.3926    9.0445 H       1  UNL1        0.2922
     44 C          65.9602   92.3276   14.2062 C.3     1  UNL1        0.0994
     45 N          67.3733   92.6723   14.5724 N.3     1  UNL1       -0.2646
     46 C          67.6447   93.7223   15.6087 C.3     1  UNL1        0.1049
     47 C          69.0578   94.0671   15.9749 C.3     1  UNL1        0.1595
     48 O          70.1996   93.3620   15.3048 O.3     1  UNL1       -0.3508
     49 C          69.9283   92.3120   14.2685 C.3     1  UNL1        0.1595
     50 C          68.5151   91.9672   13.9022 C.3     1  UNL1        0.1049
@<TRIPOS>BOND
     1    22    23    1
     2    23    24   ar
     3    24    25   ar
     4    25    18    1
     5    18    19    2
     6    18    20   am
     7    12    20    1
     8    12    13    1
     9    13    14    1
    10    14    15    1
    11    15     8    1
    12     8     9   am
    13     9    10    2
    14     9     1    1
    15     1     2   ar
    16     2     3   ar
    17     3     4    1
    18     3     5   ar
    19     5     6   ar
    20     6     7   ar
    21     7    29    1
    22    29    30    1
    23    30    31   ar
    24    31    32   ar
    25    32    33   ar
    26    33    34   ar
    27    34    36    1
    28    36    37   ar
    29    37    38   ar
    30    38    39   ar
    31    39    40    1
    32    39    41   ar
    33    41    42   ar
    34    42    44    1
    35    44    45    1
    36    45    46    1
    37    46    47    1
    38    47    48    1
    39    48    49    1
    40    49    50    1
    41    34    35   ar
    42    15    16    1
    43    16    17    1
    44    25    26   ar
    45    26    27   ar
    46    27    28    1
    47    27    23   ar
    48    17    12    1
    49     7     1   ar
    50    35    30   ar
    51    42    36   ar
    52    50    45    1
    53    20    21    1
    54     8    11    1
    55    40    43    1
