@<TRIPOS>MOLECULE
*****
 43 47 0 0 0
SMALL
GASTEIGER

@<TRIPOS>ATOM
      1 C          62.4144   94.2705   -1.0230 C.ar    1  UNL1        0.0551
      2 C          61.7139   93.5158    0.0677 C.ar    1  UNL1        0.0160
      3 C          62.2172   93.5968    1.4784 C.ar    1  UNL1        0.0788
      4 N          63.4210   94.4326    1.7984 N.ar    1  UNL1       -0.2434
      5 C          64.1215   95.1873    0.7076 C.ar    1  UNL1        0.1087
      6 C          65.3253   96.0230    1.0276 C.ar    1  UNL1        0.1576
      7 F          65.8287   96.1040    2.4383 F       1  UNL1       -0.2026
      8 C          66.0258   96.7777   -0.0632 C.ar    1  UNL1        0.0312
      9 C          65.5225   96.6967   -1.4739 C.ar    1  UNL1        0.0024
     10 C          64.3187   95.8610   -1.7938 C.ar    1  UNL1        0.0018
     11 C          63.6182   95.1063   -0.7031 C.ar    1  UNL1        0.0241
     12 C          61.5167   92.8421    2.5692 C.ar    1  UNL1        0.0174
     13 C          60.1061   93.1941    2.9383 C.ar    1  UNL1        0.0015
     14 C          59.4057   92.4394    4.0290 C.ar    1  UNL1        0.0000
     15 C          60.1158   91.3326    4.7506 C.ar    1  UNL1        0.0000
     16 C          61.5264   90.9806    4.3815 C.ar    1  UNL1        0.0000
     17 C          62.2268   91.7353    3.2908 C.ar    1  UNL1        0.0015
     18 N          60.9228   95.1997   -2.9366 N.am    1  UNL1       -0.2206
     19 C          61.9110   94.1895   -2.4337 C.2     1  UNL1        0.2617
     20 O          62.3959   93.0983   -3.3415 O.2     1  UNL1       -0.2686
     21 H          60.6045   95.9159   -2.3408 H       1  UNL1        0.1738
     22 C          61.3384   95.4324   -5.4907 C.2     1  UNL1        0.4250
     23 O          62.7605   95.8272   -5.2233 O.2     1  UNL1       -0.2242
     24 N          60.4194   95.1187   -4.3473 N.am    1  UNL1       -0.1519
     25 C          58.9973   94.7239   -4.6147 C.ar    1  UNL1        0.0760
     26 C          58.6353   93.2754   -4.7581 C.ar    1  UNL1        0.0167
     27 C          57.2131   92.8805   -5.0255 C.ar    1  UNL1        0.0013
     28 C          56.1528   93.9344   -5.1495 C.ar    1  UNL1        0.0001
     29 C          56.5148   95.3830   -5.0061 C.ar    1  UNL1        0.0013
     30 C          57.9370   95.7777   -4.7387 C.ar    1  UNL1        0.0167
     31 C          60.2458   96.5643   -7.5583 C.3     1  UNL1        0.2574
     32 O          60.8350   95.3514   -6.9014 O.3     1  UNL1       -0.4292
     33 C          60.5100   92.6800   -0.2522 C.3     1  UNL1        0.1009
     34 N          59.2061   93.3408   -0.5885 N.3     1  UNL1       -0.2665
     35 C          59.0413   94.8186   -0.3911 C.3     1  UNL1        0.0899
     36 C          57.7374   95.4794   -0.7273 C.3     1  UNL1        0.0896
     37 N          56.5982   94.6624   -1.2610 N.3     1  UNL1       -0.2728
     38 C          56.7630   93.1846   -1.4585 C.3     1  UNL1        0.0896
     39 C          58.0670   92.5238   -1.1222 C.3     1  UNL1        0.0899
     40 C          55.2943   95.3232   -1.5973 C.3     1  UNL1        0.0456
     41 C          54.7120   93.9894   -1.9603 C.3     1  UNL1        0.0160
     42 C          55.8766   96.6570   -1.2343 C.3     1  UNL1        0.0160
     43 C          53.9904   95.9840   -1.9335 C.3     1  UNL1        0.0160
@<TRIPOS>BOND
     1    31    32    1
     2    32    22    1
     3    22    23    2
     4    22    24   am
     5    24    18    1
     6    18    19   am
     7    19    20    2
     8    19     1    1
     9     1     2   ar
    10     2    33    1
    11    33    34    1
    12    34    35    1
    13    35    36    1
    14    36    37    1
    15    37    40    1
    16    40    41    1
    17    40    42    1
    18    40    43    1
    19    37    38    1
    20    38    39    1
    21     2     3   ar
    22     3    12    1
    23    12    13   ar
    24    13    14   ar
    25    14    15   ar
    26    15    16   ar
    27    16    17   ar
    28     3     4   ar
    29     4     5   ar
    30     5     6   ar
    31     6     7    1
    32     6     8   ar
    33     8     9   ar
    34     9    10   ar
    35    10    11   ar
    36    24    25    1
    37    25    26   ar
    38    26    27   ar
    39    27    28   ar
    40    28    29   ar
    41    29    30   ar
    42    11     1   ar
    43    30    25   ar
    44    39    34    1
    45    17    12   ar
    46    11     5   ar
    47    18    21    1
@<TRIPOS>MOLECULE
*****
 43 47 0 0 0
SMALL
GASTEIGER

@<TRIPOS>ATOM
      1 C          63.1900   87.9602   12.4740 C.ar    1  UNL1        0.0551
      2 C          63.5012   89.2046   13.2515 C.ar    1  UNL1        0.0160
      3 C          64.1635   89.1043   14.5937 C.ar    1  UNL1        0.0788
      4 N          64.5146   87.7597   15.1582 N.ar    1  UNL1       -0.2434
      5 C          64.2033   86.5153   14.3807 C.ar    1  UNL1        0.1087
      6 C          64.5543   85.1707   14.9452 C.ar    1  UNL1        0.1576
      7 F          65.2166   85.0704   16.2874 F       1  UNL1       -0.2026
      8 C          64.2430   83.9263   14.1677 C.ar    1  UNL1        0.0312
      9 C          63.5807   84.0266   12.8255 C.ar    1  UNL1        0.0024
     10 C          63.2297   85.3712   12.2610 C.ar    1  UNL1        0.0018
     11 C          63.5410   86.6155   13.0385 C.ar    1  UNL1        0.0241
     12 C          64.4748   90.3488   15.3712 C.ar    1  UNL1        0.0174
     13 C          65.7753   91.0638   15.1532 C.ar    1  UNL1        0.0015
     14 C          66.0865   92.3082   15.9307 C.ar    1  UNL1        0.0000
     15 C          65.0973   92.8375   16.9263 C.ar    1  UNL1        0.0000
     16 C          63.7968   92.1225   17.1444 C.ar    1  UNL1        0.0000
     17 C          63.4856   90.8782   16.3668 C.ar    1  UNL1        0.0015
     18 N          61.4060   87.1296   10.7776 N.am    1  UNL1       -0.2206
     19 C          62.5276   88.0605   11.1319 C.2     1  UNL1        0.2617
     20 O          62.9869   89.0916   10.1440 O.2     1  UNL1       -0.2686
     21 H          61.1046   86.4528   11.4260 H       1  UNL1        0.1738
     22 C          59.7407   88.3140    9.1732 C.2     1  UNL1        0.4250
     23 O          59.4000   89.2977   10.2530 O.2     1  UNL1       -0.2242
     24 N          60.7437   87.2298    9.4355 N.am    1  UNL1       -0.1519
     25 C          61.0844   86.2461    8.3556 C.ar    1  UNL1        0.0760
     26 C          62.4890   85.7373    8.2205 C.ar    1  UNL1        0.0167
     27 C          62.8297   84.7535    7.1406 C.ar    1  UNL1        0.0013
     28 C          61.7658   84.2784    6.1960 C.ar    1  UNL1        0.0001
     29 C          60.3612   84.7872    6.3312 C.ar    1  UNL1        0.0013
     30 C          60.0205   85.7710    7.4110 C.ar    1  UNL1        0.0167
     31 C          59.5319   89.4510    6.8465 C.3     1  UNL1        0.2574
     32 O          59.0784   88.4142    7.8311 O.3     1  UNL1       -0.4292
     33 C          63.1502   90.5493   12.6870 C.3     1  UNL1        0.1009
     34 N          64.1850   91.3465   11.9496 N.3     1  UNL1       -0.2665
     35 C          65.5500   91.5343   12.5425 C.3     1  UNL1        0.0899
     36 C          66.5847   92.3315   11.8051 C.3     1  UNL1        0.0896
     37 N          66.2545   92.9409   10.4748 N.3     1  UNL1       -0.2728
     38 C          64.8895   92.7530    9.8819 C.3     1  UNL1        0.0896
     39 C          63.8547   91.9558   10.6194 C.3     1  UNL1        0.0899
     40 C          67.2892   93.7380    9.7374 C.3     1  UNL1        0.0456
     41 C          66.4738   94.9811    9.9370 C.3     1  UNL1        0.0160
     42 C          68.1046   92.4950    9.5378 C.3     1  UNL1        0.0160
     43 C          68.3240   94.5352    9.0000 C.3     1  UNL1        0.0160
@<TRIPOS>BOND
     1    31    32    1
     2    32    22    1
     3    22    23    2
     4    22    24   am
     5    24    18    1
     6    18    19   am
     7    19    20    2
     8    19     1    1
     9     1     2   ar
    10     2    33    1
    11    33    34    1
    12    34    35    1
    13    35    36    1
    14    36    37    1
    15    37    40    1
    16    40    41    1
    17    40    42    1
    18    40    43    1
    19    37    38    1
    20    38    39    1
    21     2     3   ar
    22     3    12    1
    23    12    13   ar
    24    13    14   ar
    25    14    15   ar
    26    15    16   ar
    27    16    17   ar
    28     3     4   ar
    29     4     5   ar
    30     5     6   ar
    31     6     7    1
    32     6     8   ar
    33     8     9   ar
    34     9    10   ar
    35    10    11   ar
    36    24    25    1
    37    25    26   ar
    38    26    27   ar
    39    27    28   ar
    40    28    29   ar
    41    29    30   ar
    42    11     1   ar
    43    30    25   ar
    44    39    34    1
    45    17    12   ar
    46    11     5   ar
    47    18    21    1
@<TRIPOS>MOLECULE
*****
 43 47 0 0 0
SMALL
GASTEIGER

@<TRIPOS>ATOM
      1 C          63.3869   89.8198   12.0089 C.ar    1  UNL1        0.0551
      2 C          63.1218   88.9287   13.1860 C.ar    1  UNL1        0.0160
      3 C          63.8968   89.1145   14.4568 C.ar    1  UNL1        0.0788
      4 N          64.9368   90.1913   14.5505 N.ar    1  UNL1       -0.2434
      5 C          65.2019   91.0824   13.3733 C.ar    1  UNL1        0.1087
      6 C          66.2419   92.1592   13.4669 C.ar    1  UNL1        0.1576
      7 F          67.0169   92.3449   14.7377 F       1  UNL1       -0.2026
      8 C          66.5070   93.0502   12.2897 C.ar    1  UNL1        0.0312
      9 C          65.7321   92.8644   11.0189 C.ar    1  UNL1        0.0024
     10 C          64.6920   91.7876   10.9253 C.ar    1  UNL1        0.0018
     11 C          64.4270   90.8966   12.1025 C.ar    1  UNL1        0.0241
     12 C          63.6316   88.2234   15.6340 C.ar    1  UNL1        0.0174
     13 C          64.0626   86.7871   15.5996 C.ar    1  UNL1        0.0015
     14 C          63.7975   85.8961   16.7767 C.ar    1  UNL1        0.0000
     15 C          63.1014   86.4414   17.9884 C.ar    1  UNL1        0.0000
     16 C          62.6704   87.8777   18.0229 C.ar    1  UNL1        0.0000
     17 C          62.9355   88.7687   16.8457 C.ar    1  UNL1        0.0015
     18 N          61.7195   88.4398   10.5716 N.am    1  UNL1       -0.2206
     19 C          62.6119   89.6340   10.7381 C.2     1  UNL1        0.2617
     20 O          62.7293   90.6423    9.6338 O.2     1  UNL1       -0.2686
     21 H          61.6424   87.7780   11.2964 H       1  UNL1        0.1738
     22 C          59.9374   89.2827    8.8793 C.2     1  UNL1        0.4250
     23 O          59.7053   90.4971    9.7286 O.2     1  UNL1       -0.2242
     24 N          60.9446   88.2541    9.3008 N.am    1  UNL1       -0.1519
     25 C          61.1767   87.0397    8.4515 C.ar    1  UNL1        0.0760
     26 C          60.0359   86.4219    7.6985 C.ar    1  UNL1        0.0167
     27 C          60.2680   85.2074    6.8492 C.ar    1  UNL1        0.0013
     28 C          61.6409   84.6109    6.7528 C.ar    1  UNL1        0.0001
     29 C          62.7817   85.2288    7.5057 C.ar    1  UNL1        0.0013
     30 C          62.5496   86.4431    8.3551 C.ar    1  UNL1        0.0167
     31 C          59.5512   89.8569    6.3751 C.3     1  UNL1        0.2574
     32 O          59.1625   89.0970    7.6085 O.3     1  UNL1       -0.4292
     33 C          62.0817   87.8519   13.0924 C.3     1  UNL1        0.1009
     34 N          62.4570   86.4880   12.5935 N.3     1  UNL1       -0.2665
     35 C          63.6552   85.7856   13.1601 C.3     1  UNL1        0.0899
     36 C          64.0305   84.4217   12.6612 C.3     1  UNL1        0.0896
     37 N          63.2076   83.7602   11.5957 N.3     1  UNL1       -0.2728
     38 C          62.0095   84.4626   11.0291 C.3     1  UNL1        0.0896
     39 C          61.6342   85.8266   11.5280 C.3     1  UNL1        0.0899
     40 C          63.5830   82.3963   11.0967 C.3     1  UNL1        0.0456
     41 C          62.7846   81.7721   12.2026 C.3     1  UNL1        0.0160
     42 C          64.3813   83.0206    9.9909 C.3     1  UNL1        0.0160
     43 C          63.9583   81.0325   10.5978 C.3     1  UNL1        0.0160
@<TRIPOS>BOND
     1    31    32    1
     2    32    22    1
     3    22    23    2
     4    22    24   am
     5    24    18    1
     6    18    19   am
     7    19    20    2
     8    19     1    1
     9     1     2   ar
    10     2    33    1
    11    33    34    1
    12    34    35    1
    13    35    36    1
    14    36    37    1
    15    37    40    1
    16    40    41    1
    17    40    42    1
    18    40    43    1
    19    37    38    1
    20    38    39    1
    21     2     3   ar
    22     3    12    1
    23    12    13   ar
    24    13    14   ar
    25    14    15   ar
    26    15    16   ar
    27    16    17   ar
    28     3     4   ar
    29     4     5   ar
    30     5     6   ar
    31     6     7    1
    32     6     8   ar
    33     8     9   ar
    34     9    10   ar
    35    10    11   ar
    36    24    25    1
    37    25    26   ar
    38    26    27   ar
    39    27    28   ar
    40    28    29   ar
    41    29    30   ar
    42    11     1   ar
    43    30    25   ar
    44    39    34    1
    45    17    12   ar
    46    11     5   ar
    47    18    21    1
@<TRIPOS>MOLECULE
*****
 43 47 0 0 0
SMALL
GASTEIGER

@<TRIPOS>ATOM
      1 C          61.4927   95.6721   -3.0704 C.ar    1  UNL1        0.0551
      2 C          60.1976   95.5634   -3.8193 C.ar    1  UNL1        0.0160
      3 C          60.1829   95.6886   -5.3140 C.ar    1  UNL1        0.0788
      4 N          61.4631   95.9226   -6.0597 N.ar    1  UNL1       -0.2434
      5 C          62.7582   96.0314   -5.3108 C.ar    1  UNL1        0.1087
      6 C          64.0385   96.2654   -6.0565 C.ar    1  UNL1        0.1576
      7 F          64.0237   96.3906   -7.5512 F       1  UNL1       -0.2026
      8 C          65.3335   96.3741   -5.3075 C.ar    1  UNL1        0.0312
      9 C          65.3483   96.2489   -3.8128 C.ar    1  UNL1        0.0024
     10 C          64.0681   96.0149   -3.0671 C.ar    1  UNL1        0.0018
     11 C          62.7730   95.9061   -3.8161 C.ar    1  UNL1        0.0241
     12 C          58.8877   95.5798   -6.0630 C.ar    1  UNL1        0.0174
     13 C          58.5435   94.3113   -6.7856 C.ar    1  UNL1        0.0015
     14 C          57.2484   94.2026   -7.5345 C.ar    1  UNL1        0.0000
     15 C          56.2976   95.3624   -7.5608 C.ar    1  UNL1        0.0000
     16 C          56.6418   96.6309   -6.8382 C.ar    1  UNL1        0.0000
     17 C          57.9369   96.7397   -6.0892 C.ar    1  UNL1        0.0015
     18 N          61.8186   94.2258   -0.9368 N.am    1  UNL1       -0.2206
     19 C          61.5075   95.5469   -1.5757 C.2     1  UNL1        0.2617
     20 O          61.2111   96.7426   -0.7199 O.2     1  UNL1       -0.2686
     21 H          62.0131   93.4410   -1.4985 H       1  UNL1        0.1738
     22 C          60.7740   93.2983    1.2538 C.2     1  UNL1        0.4250
     23 O          59.7000   92.6213    0.4551 O.2     1  UNL1       -0.2242
     24 N          61.8334   94.1006    0.5579 N.am    1  UNL1       -0.1519
     25 C          62.9074   94.7775    1.3567 C.ar    1  UNL1        0.0760
     26 C          64.1862   94.0540    1.6587 C.ar    1  UNL1        0.0167
     27 C          65.2603   94.7310    2.4575 C.ar    1  UNL1        0.0013
     28 C          65.0556   96.1315    2.9543 C.ar    1  UNL1        0.0001
     29 C          63.7768   96.8550    2.6522 C.ar    1  UNL1        0.0013
     30 C          62.7027   96.1780    1.8535 C.ar    1  UNL1        0.0167
     31 C          59.5938   92.6198    3.4667 C.3     1  UNL1        0.2574
     32 O          60.7888   93.1731    2.7485 O.3     1  UNL1       -0.4292
     33 C          58.9173   95.3293   -3.0736 C.3     1  UNL1        0.1009
     34 N          58.0267   94.1837   -3.4535 N.3     1  UNL1       -0.2665
     35 C          56.5840   94.4317   -3.7808 C.3     1  UNL1        0.0899
     36 C          55.6935   93.2861   -4.1607 C.3     1  UNL1        0.0896
     37 N          56.2456   91.8924   -4.2133 N.3     1  UNL1       -0.2728
     38 C          57.6883   91.6443   -3.8860 C.3     1  UNL1        0.0896
     39 C          58.5788   92.7900   -3.5061 C.3     1  UNL1        0.0899
     40 C          55.3550   90.7467   -4.5932 C.3     1  UNL1        0.0456
     41 C          55.2905   91.2633   -5.9999 C.3     1  UNL1        0.0160
     42 C          55.4195   90.2301   -3.1865 C.3     1  UNL1        0.0160
     43 C          54.4644   89.6011   -4.9731 C.3     1  UNL1        0.0160
@<TRIPOS>BOND
     1    31    32    1
     2    32    22    1
     3    22    23    2
     4    22    24   am
     5    24    18    1
     6    18    19   am
     7    19    20    2
     8    19     1    1
     9     1     2   ar
    10     2    33    1
    11    33    34    1
    12    34    35    1
    13    35    36    1
    14    36    37    1
    15    37    40    1
    16    40    41    1
    17    40    42    1
    18    40    43    1
    19    37    38    1
    20    38    39    1
    21     2     3   ar
    22     3    12    1
    23    12    13   ar
    24    13    14   ar
    25    14    15   ar
    26    15    16   ar
    27    16    17   ar
    28     3     4   ar
    29     4     5   ar
    30     5     6   ar
    31     6     7    1
    32     6     8   ar
    33     8     9   ar
    34     9    10   ar
    35    10    11   ar
    36    24    25    1
    37    25    26   ar
    38    26    27   ar
    39    27    28   ar
    40    28    29   ar
    41    29    30   ar
    42    11     1   ar
    43    30    25   ar
    44    39    34    1
    45    17    12   ar
    46    11     5   ar
    47    18    21    1
