@<TRIPOS>MOLECULE
*****
 32 35 0 0 0
SMALL
GASTEIGER

@<TRIPOS>ATOM
      1 C          63.1449   87.2645   12.6168 C.ar    1  UNL1        0.0537
      2 C          63.2262   85.7878   12.8672 C.ar    1  UNL1        0.0045
      3 C          62.5506   84.8301   11.9311 C.ar    1  UNL1        0.0002
      4 C          61.7936   85.3490   10.7446 C.ar    1  UNL1        0.0000
      5 C          61.7123   86.8258   10.4942 C.ar    1  UNL1        0.0001
      6 C          60.9553   87.3448    9.3078 C.ar    1  UNL1        0.0000
      7 C          60.8740   88.8215    9.0575 C.ar    1  UNL1        0.0000
      8 C          61.5496   89.7792    9.9936 C.ar    1  UNL1        0.0000
      9 C          62.3066   89.2602   11.1800 C.ar    1  UNL1        0.0001
     10 C          62.3879   87.7836   11.4303 C.ar    1  UNL1        0.0044
     11 C          62.6319   83.3533   12.1815 C.ar    1  UNL1        0.0008
     12 C          62.5291   82.8231   13.5808 C.ar    1  UNL1        0.0001
     13 C          62.6104   81.3464   13.8312 C.ar    1  UNL1        0.0009
     14 C          62.7947   80.3999   12.6821 C.ar    1  UNL1        0.0114
     15 C          62.8975   80.9302   11.2828 C.ar    1  UNL1        0.0577
     16 CL         63.0817   79.9837   10.1338 Cl      1  UNL1       -0.0822
     17 C          62.8162   82.4069   11.0324 C.ar    1  UNL1        0.0114
     18 N          63.4800   89.6823   13.5066 N.am    1  UNL1       -0.2809
     19 C          63.8205   88.2223   13.5529 C.2     1  UNL1        0.2495
     20 O          64.8366   87.7198   14.5354 O.2     1  UNL1       -0.2698
     21 H          62.8131   90.0121   12.8618 H       1  UNL1        0.1552
     22 C          62.7775   89.6765   16.4232 C.3     1  UNL1        0.0323
     23 C          63.8044   90.6372   15.9010 C.ar    1  UNL1       -0.0087
     24 C          64.4800   91.5949   16.8371 C.ar    1  UNL1       -0.0030
     25 C          65.5069   92.5556   16.3149 C.ar    1  UNL1        0.0006
     26 C          65.8581   92.5585   14.8566 C.ar    1  UNL1        0.0112
     27 C          65.1825   91.6007   13.9205 C.ar    1  UNL1       -0.0076
     28 C          65.5338   91.6037   12.4622 C.3     1  UNL1        0.0324
     29 C          64.1556   90.6401   14.4427 C.ar    1  UNL1        0.0425
     30 C          66.8850   93.5191   14.3344 C.2     1  UNL1        0.0726
     31 O          66.4526   94.7504   13.5948 O.co2   1  UNL1       -0.5446
     32 O          68.3443   93.2485   14.5518 O.co2   1  UNL1       -0.5446
@<TRIPOS>UNITY_ATOM_ATTR
31 1
charge -1
@<TRIPOS>BOND
     1    22    23    1
     2    23    24   ar
     3    24    25   ar
     4    25    26   ar
     5    26    30    1
     6    30    31   ar
     7    30    32   ar
     8    26    27   ar
     9    27    28    1
    10    27    29   ar
    11    29    18    1
    12    18    19   am
    13    19    20    2
    14    19     1    1
    15     1     2   ar
    16     2     3   ar
    17     3    11    1
    18    11    12   ar
    19    12    13   ar
    20    13    14   ar
    21    14    15   ar
    22    15    16    1
    23    15    17   ar
    24     3     4   ar
    25     4     5   ar
    26     5     6   ar
    27     6     7   ar
    28     7     8   ar
    29     8     9   ar
    30     9    10   ar
    31    29    23   ar
    32    10     1   ar
    33    17    11   ar
    34    10     5   ar
    35    18    21    1
@<TRIPOS>MOLECULE
*****
 32 35 0 0 0
SMALL
GASTEIGER

@<TRIPOS>ATOM
      1 C          63.3045   88.8704   12.4542 C.ar    1  UNL1        0.0537
      2 C          62.4593   88.7829   11.2181 C.ar    1  UNL1        0.0045
      3 C          61.9201   87.4566   10.7706 C.ar    1  UNL1        0.0002
      4 C          62.2261   86.2179   11.5591 C.ar    1  UNL1        0.0000
      5 C          63.0714   86.3054   12.7953 C.ar    1  UNL1        0.0001
      6 C          63.3774   85.0666   13.5838 C.ar    1  UNL1        0.0000
      7 C          64.2227   85.1542   14.8198 C.ar    1  UNL1        0.0000
      8 C          64.7619   86.4804   15.2674 C.ar    1  UNL1        0.0000
      9 C          64.4558   87.7192   14.4788 C.ar    1  UNL1        0.0001
     10 C          63.6106   87.6316   13.2428 C.ar    1  UNL1        0.0044
     11 C          61.0748   87.3691    9.5345 C.ar    1  UNL1        0.0008
     12 C          60.7953   86.0343    8.9099 C.ar    1  UNL1        0.0001
     13 C          59.9501   85.9469    7.6739 C.ar    1  UNL1        0.0009
     14 C          59.3844   87.1943    7.0623 C.ar    1  UNL1        0.0114
     15 C          59.6639   88.5291    7.6869 C.ar    1  UNL1        0.0577
     16 CL         59.0981   89.7765    7.0754 Cl      1  UNL1       -0.0822
     17 C          60.5091   88.6165    8.9229 C.ar    1  UNL1        0.0114
     18 N          65.1193   90.7244   12.3149 N.am    1  UNL1       -0.2809
     19 C          63.8437   90.1967   12.9017 C.2     1  UNL1        0.2495
     20 O          63.1072   90.9953   13.9362 O.2     1  UNL1       -0.2698
     21 H          65.6026   90.2002   11.6360 H       1  UNL1        0.1552
     22 C          66.1531   91.0569   15.1115 C.3     1  UNL1        0.0323
     23 C          66.1754   92.2169   14.1608 C.ar    1  UNL1       -0.0087
     24 C          66.7146   93.5432   14.6083 C.ar    1  UNL1       -0.0030
     25 C          66.7368   94.7032   13.6575 C.ar    1  UNL1        0.0006
     26 C          66.2199   94.5369   12.2593 C.ar    1  UNL1        0.0112
     27 C          65.6807   93.2106   11.8117 C.ar    1  UNL1       -0.0076
     28 C          65.1638   93.0444   10.4134 C.3     1  UNL1        0.0324
     29 C          65.6584   92.0507   12.7624 C.ar    1  UNL1        0.0425
     30 C          66.2422   95.6969   11.3085 C.2     1  UNL1        0.0726
     31 O          65.3132   96.8559   11.5176 O.co2   1  UNL1       -0.5446
     32 O          67.1934   95.6979   10.1487 O.co2   1  UNL1       -0.5446
@<TRIPOS>UNITY_ATOM_ATTR
31 1
charge -1
@<TRIPOS>BOND
     1    22    23    1
     2    23    24   ar
     3    24    25   ar
     4    25    26   ar
     5    26    30    1
     6    30    31   ar
     7    30    32   ar
     8    26    27   ar
     9    27    28    1
    10    27    29   ar
    11    29    18    1
    12    18    19   am
    13    19    20    2
    14    19     1    1
    15     1     2   ar
    16     2     3   ar
    17     3    11    1
    18    11    12   ar
    19    12    13   ar
    20    13    14   ar
    21    14    15   ar
    22    15    16    1
    23    15    17   ar
    24     3     4   ar
    25     4     5   ar
    26     5     6   ar
    27     6     7   ar
    28     7     8   ar
    29     8     9   ar
    30     9    10   ar
    31    29    23   ar
    32    10     1   ar
    33    17    11   ar
    34    10     5   ar
    35    18    21    1
@<TRIPOS>MOLECULE
*****
 32 35 0 0 0
SMALL
GASTEIGER

@<TRIPOS>ATOM
      1 C          62.7560   88.4955   11.9990 C.ar    1  UNL1        0.0537
      2 C          63.1238   87.1534   12.5588 C.ar    1  UNL1        0.0045
      3 C          62.5386   85.9068   11.9644 C.ar    1  UNL1        0.0002
      4 C          61.5855   86.0022   10.8101 C.ar    1  UNL1        0.0000
      5 C          61.2175   87.3443   10.2502 C.ar    1  UNL1        0.0001
      6 C          60.2644   87.4397    9.0959 C.ar    1  UNL1        0.0000
      7 C          59.8966   88.7818    8.5361 C.ar    1  UNL1        0.0000
      8 C          60.4818   90.0284    9.1305 C.ar    1  UNL1        0.0000
      9 C          61.4349   89.9330   10.2848 C.ar    1  UNL1        0.0001
     10 C          61.8028   88.5910   10.8446 C.ar    1  UNL1        0.0044
     11 C          62.9065   84.5646   12.5243 C.ar    1  UNL1        0.0008
     12 C          63.4228   84.4536   13.9282 C.ar    1  UNL1        0.0001
     13 C          63.7907   83.1116   14.4881 C.ar    1  UNL1        0.0009
     14 C          63.6422   81.8805   13.6440 C.ar    1  UNL1        0.0114
     15 C          63.1259   81.9915   12.2401 C.ar    1  UNL1        0.0577
     16 CL         62.9775   80.7605   11.3960 Cl      1  UNL1       -0.0822
     17 C          62.7581   83.3336   11.6802 C.ar    1  UNL1        0.0114
     18 N          64.6930   90.2200   12.1527 N.am    1  UNL1       -0.2809
     19 C          63.3412   89.7421   12.5934 C.2     1  UNL1        0.2495
     20 O          62.5746   90.5109   13.6285 O.2     1  UNL1       -0.2698
     21 H          65.1962   89.7155   11.4734 H       1  UNL1        0.1552
     22 C          65.3365   90.3265   15.0810 C.3     1  UNL1        0.0323
     23 C          65.6000   91.5199   14.2113 C.ar    1  UNL1       -0.0087
     24 C          66.1853   92.7666   14.8058 C.ar    1  UNL1       -0.0030
     25 C          66.4488   93.9600   13.9360 C.ar    1  UNL1        0.0006
     26 C          66.1271   93.9067   12.4719 C.ar    1  UNL1        0.0112
     27 C          65.5418   92.6600   11.8775 C.ar    1  UNL1       -0.0076
     28 C          65.2201   92.6068   10.4133 C.3     1  UNL1        0.0324
     29 C          65.2783   91.4667   12.7472 C.ar    1  UNL1        0.0425
     30 C          66.3906   95.1001   11.6022 C.2     1  UNL1        0.0726
     31 O          67.2887   94.9737   10.4074 O.co2   1  UNL1       -0.5446
     32 O          65.7561   96.4198   11.9272 O.co2   1  UNL1       -0.5446
@<TRIPOS>UNITY_ATOM_ATTR
31 1
charge -1
@<TRIPOS>BOND
     1    22    23    1
     2    23    24   ar
     3    24    25   ar
     4    25    26   ar
     5    26    30    1
     6    30    31   ar
     7    30    32   ar
     8    26    27   ar
     9    27    28    1
    10    27    29   ar
    11    29    18    1
    12    18    19   am
    13    19    20    2
    14    19     1    1
    15     1     2   ar
    16     2     3   ar
    17     3    11    1
    18    11    12   ar
    19    12    13   ar
    20    13    14   ar
    21    14    15   ar
    22    15    16    1
    23    15    17   ar
    24     3     4   ar
    25     4     5   ar
    26     5     6   ar
    27     6     7   ar
    28     7     8   ar
    29     8     9   ar
    30     9    10   ar
    31    29    23   ar
    32    10     1   ar
    33    17    11   ar
    34    10     5   ar
    35    18    21    1
@<TRIPOS>MOLECULE
*****
 32 35 0 0 0
SMALL
GASTEIGER

@<TRIPOS>ATOM
      1 C          62.6447   88.2875   11.9011 C.ar    1  UNL1        0.0537
      2 C          63.0112   86.9431   12.4562 C.ar    1  UNL1        0.0045
      3 C          62.4320   85.6987   11.8514 C.ar    1  UNL1        0.0002
      4 C          61.4863   85.7986   10.6914 C.ar    1  UNL1        0.0000
      5 C          61.1197   87.1431   10.1362 C.ar    1  UNL1        0.0001
      6 C          60.1740   87.2430    8.9763 C.ar    1  UNL1        0.0000
      7 C          59.8075   88.5874    8.4212 C.ar    1  UNL1        0.0000
      8 C          60.3867   89.8319    9.0260 C.ar    1  UNL1        0.0000
      9 C          61.3324   89.7319   10.1860 C.ar    1  UNL1        0.0001
     10 C          61.6989   88.3875   10.7411 C.ar    1  UNL1        0.0044
     11 C          62.7985   84.3542   12.4066 C.ar    1  UNL1        0.0008
     12 C          63.2650   84.2311   13.8268 C.ar    1  UNL1        0.0001
     13 C          63.6315   82.8867   14.3820 C.ar    1  UNL1        0.0009
     14 C          63.5316   81.6654   13.5168 C.ar    1  UNL1        0.0114
     15 C          63.0651   81.7885   12.0966 C.ar    1  UNL1        0.0577
     16 CL         62.9651   80.5672   11.2314 Cl      1  UNL1       -0.0822
     17 C          62.6986   83.1329   11.5414 C.ar    1  UNL1        0.0114
     18 N          64.5318   90.0702   12.0061 N.am    1  UNL1       -0.2809
     19 C          63.2239   89.5320   12.5059 C.2     1  UNL1        0.2495
     20 O          62.4952   90.2382   13.6106 O.2     1  UNL1       -0.2698
     21 H          65.0100   89.6066   11.2811 H       1  UNL1        0.1552
     22 C          64.8844   92.5306   10.3262 C.3     1  UNL1        0.0323
     23 C          65.2873   92.5448   11.7710 C.ar    1  UNL1       -0.0087
     24 C          65.8665   93.7893   12.3758 C.ar    1  UNL1       -0.0030
     25 C          66.2695   93.8035   13.8207 C.ar    1  UNL1        0.0006
     26 C          66.0932   92.5733   14.6606 C.ar    1  UNL1        0.0112
     27 C          65.5139   91.3289   14.0558 C.ar    1  UNL1       -0.0076
     28 C          65.3376   90.0987   14.8958 C.3     1  UNL1        0.0324
     29 C          65.1110   91.3146   12.6110 C.ar    1  UNL1        0.0425
     30 C          66.4961   92.5876   16.1054 C.2     1  UNL1        0.0726
     31 O          65.4517   92.7194   17.1740 O.co2   1  UNL1       -0.5446
     32 O          67.9433   92.4700   16.4816 O.co2   1  UNL1       -0.5446
@<TRIPOS>UNITY_ATOM_ATTR
31 1
charge -1
@<TRIPOS>BOND
     1    22    23    1
     2    23    24   ar
     3    24    25   ar
     4    25    26   ar
     5    26    30    1
     6    30    31   ar
     7    30    32   ar
     8    26    27   ar
     9    27    28    1
    10    27    29   ar
    11    29    18    1
    12    18    19   am
    13    19    20    2
    14    19     1    1
    15     1     2   ar
    16     2     3   ar
    17     3    11    1
    18    11    12   ar
    19    12    13   ar
    20    13    14   ar
    21    14    15   ar
    22    15    16    1
    23    15    17   ar
    24     3     4   ar
    25     4     5   ar
    26     5     6   ar
    27     6     7   ar
    28     7     8   ar
    29     8     9   ar
    30     9    10   ar
    31    29    23   ar
    32    10     1   ar
    33    17    11   ar
    34    10     5   ar
    35    18    21    1
@<TRIPOS>MOLECULE
*****
 32 35 0 0 0
SMALL
GASTEIGER

@<TRIPOS>ATOM
      1 C          63.2810   87.7951   12.6446 C.ar    1  UNL1        0.0537
      2 C          64.1192   88.6256   13.5706 C.ar    1  UNL1        0.0045
      3 C          63.9592   90.1169   13.5928 C.ar    1  UNL1        0.0002
      4 C          62.9610   90.7776   12.6889 C.ar    1  UNL1        0.0000
      5 C          62.1227   89.9471   11.7628 C.ar    1  UNL1        0.0001
      6 C          61.1245   90.6078   10.8590 C.ar    1  UNL1        0.0000
      7 C          60.2863   89.7773    9.9330 C.ar    1  UNL1        0.0000
      8 C          60.4463   88.2860    9.9108 C.ar    1  UNL1        0.0000
      9 C          61.4445   87.6253   10.8146 C.ar    1  UNL1        0.0001
     10 C          62.2827   88.4558   11.7406 C.ar    1  UNL1        0.0044
     11 C          64.7975   90.9474   14.5189 C.ar    1  UNL1        0.0008
     12 C          64.2198   91.4444   15.8108 C.ar    1  UNL1        0.0001
     13 C          65.0581   92.2749   16.7369 C.ar    1  UNL1        0.0009
     14 C          66.4740   92.6084   16.3709 C.ar    1  UNL1        0.0114
     15 C          67.0517   92.1114   15.0789 C.ar    1  UNL1        0.0577
     16 CL         68.4676   92.4449   14.7129 Cl      1  UNL1       -0.0822
     17 C          66.2134   91.2809   14.1529 C.ar    1  UNL1        0.0114
     18 N          62.6746   85.4820   11.6288 N.am    1  UNL1       -0.2809
     19 C          63.4410   86.3038   12.6224 C.2     1  UNL1        0.2495
     20 O          64.3675   85.6343   13.5938 O.2     1  UNL1       -0.2698
     21 H          62.0665   85.9213   10.9913 H       1  UNL1        0.1552
     22 C          63.7934   84.1294    9.1959 C.3     1  UNL1        0.0323
     23 C          63.3940   83.3144   10.3901 C.ar    1  UNL1       -0.0087
     24 C          63.5540   81.8231   10.3680 C.ar    1  UNL1       -0.0030
     25 C          63.1546   81.0081   11.5623 C.ar    1  UNL1        0.0006
     26 C          62.5952   81.6844   12.7787 C.ar    1  UNL1        0.0112
     27 C          62.4352   83.1757   12.8008 C.ar    1  UNL1       -0.0076
     28 C          61.8757   83.8519   14.0173 C.3     1  UNL1        0.0324
     29 C          62.8346   83.9907   11.6066 C.ar    1  UNL1        0.0425
     30 C          62.1957   80.8694   13.9730 C.2     1  UNL1        0.0726
     31 O          60.7798   80.9065   14.4667 O.co2   1  UNL1       -0.5446
     32 O          63.2122   80.0173   14.6734 O.co2   1  UNL1       -0.5446
@<TRIPOS>UNITY_ATOM_ATTR
31 1
charge -1
@<TRIPOS>BOND
     1    22    23    1
     2    23    24   ar
     3    24    25   ar
     4    25    26   ar
     5    26    30    1
     6    30    31   ar
     7    30    32   ar
     8    26    27   ar
     9    27    28    1
    10    27    29   ar
    11    29    18    1
    12    18    19   am
    13    19    20    2
    14    19     1    1
    15     1     2   ar
    16     2     3   ar
    17     3    11    1
    18    11    12   ar
    19    12    13   ar
    20    13    14   ar
    21    14    15   ar
    22    15    16    1
    23    15    17   ar
    24     3     4   ar
    25     4     5   ar
    26     5     6   ar
    27     6     7   ar
    28     7     8   ar
    29     8     9   ar
    30     9    10   ar
    31    29    23   ar
    32    10     1   ar
    33    17    11   ar
    34    10     5   ar
    35    18    21    1
@<TRIPOS>MOLECULE
*****
 32 35 0 0 0
SMALL
GASTEIGER

@<TRIPOS>ATOM
      1 C          63.6264   87.6683   13.0856 C.ar    1  UNL1        0.0537
      2 C          64.3758   88.5908   14.0006 C.ar    1  UNL1        0.0045
      3 C          64.3695   90.0689   13.7453 C.ar    1  UNL1        0.0002
      4 C          63.6136   90.6245   12.5749 C.ar    1  UNL1        0.0000
      5 C          62.8642   89.7021   11.6597 C.ar    1  UNL1        0.0001
      6 C          62.1084   90.2577   10.4893 C.ar    1  UNL1        0.0000
      7 C          61.3589   89.3353    9.5742 C.ar    1  UNL1        0.0000
      8 C          61.3653   87.8572    9.8295 C.ar    1  UNL1        0.0000
      9 C          62.1211   87.3016   11.0000 C.ar    1  UNL1        0.0001
     10 C          62.8706   88.2240   11.9151 C.ar    1  UNL1        0.0044
     11 C          65.1189   90.9913   14.6605 C.ar    1  UNL1        0.0008
     12 C          64.4433   91.5544   15.8756 C.ar    1  UNL1        0.0001
     13 C          65.1928   92.4767   16.7907 C.ar    1  UNL1        0.0009
     14 C          66.6179   92.8361   16.4906 C.ar    1  UNL1        0.0114
     15 C          67.2935   92.2731   15.2755 C.ar    1  UNL1        0.0577
     16 CL         68.7186   92.6325   14.9755 Cl      1  UNL1       -0.0822
     17 C          66.5440   91.3507   14.3605 C.ar    1  UNL1        0.0114
     18 N          62.4692   85.3491   12.9068 N.am    1  UNL1       -0.2809
     19 C          63.6328   86.1903   13.3409 C.2     1  UNL1        0.2495
     20 O          64.8029   85.5533   14.0304 O.2     1  UNL1       -0.2698
     21 H          61.7013   85.7672   12.4543 H       1  UNL1        0.1552
     22 C          61.9775   84.3030   15.6752 C.3     1  UNL1        0.0323
     23 C          62.2297   83.3480   14.5464 C.ar    1  UNL1       -0.0087
     24 C          62.2361   81.8699   14.8018 C.ar    1  UNL1       -0.0030
     25 C          62.4884   80.9148   13.6728 C.ar    1  UNL1        0.0006
     26 C          62.7342   81.4379   12.2887 C.ar    1  UNL1        0.0112
     27 C          62.7278   82.9160   12.0334 C.ar    1  UNL1       -0.0076
     28 C          62.9737   83.4391   10.6491 C.3     1  UNL1        0.0324
     29 C          62.4756   83.8710   13.1622 C.ar    1  UNL1        0.0425
     30 C          62.9865   80.4829   11.1598 C.2     1  UNL1        0.0726
     31 O          63.5891   80.9784    9.8787 O.co2   1  UNL1       -0.5446
     32 O          62.6361   79.0324   11.3121 O.co2   1  UNL1       -0.5446
@<TRIPOS>UNITY_ATOM_ATTR
31 1
charge -1
@<TRIPOS>BOND
     1    22    23    1
     2    23    24   ar
     3    24    25   ar
     4    25    26   ar
     5    26    30    1
     6    30    31   ar
     7    30    32   ar
     8    26    27   ar
     9    27    28    1
    10    27    29   ar
    11    29    18    1
    12    18    19   am
    13    19    20    2
    14    19     1    1
    15     1     2   ar
    16     2     3   ar
    17     3    11    1
    18    11    12   ar
    19    12    13   ar
    20    13    14   ar
    21    14    15   ar
    22    15    16    1
    23    15    17   ar
    24     3     4   ar
    25     4     5   ar
    26     5     6   ar
    27     6     7   ar
    28     7     8   ar
    29     8     9   ar
    30     9    10   ar
    31    29    23   ar
    32    10     1   ar
    33    17    11   ar
    34    10     5   ar
    35    18    21    1
@<TRIPOS>MOLECULE
*****
 32 35 0 0 0
SMALL
GASTEIGER

@<TRIPOS>ATOM
      1 C          63.8107   86.9607   14.1716 C.ar    1  UNL1        0.0537
      2 C          64.0919   88.1048   13.2432 C.ar    1  UNL1        0.0045
      3 C          64.0346   89.5148   13.7518 C.ar    1  UNL1        0.0002
      4 C          63.6962   89.7806   15.1887 C.ar    1  UNL1        0.0000
      5 C          63.4150   88.6365   16.1171 C.ar    1  UNL1        0.0001
      6 C          63.0765   88.9023   17.5540 C.ar    1  UNL1        0.0000
      7 C          62.7953   87.7582   18.4824 C.ar    1  UNL1        0.0000
      8 C          62.8526   86.3482   17.9738 C.ar    1  UNL1        0.0000
      9 C          63.1910   86.0824   16.5369 C.ar    1  UNL1        0.0001
     10 C          63.4722   87.2265   15.6086 C.ar    1  UNL1        0.0044
     11 C          64.3159   90.6590   12.8234 C.ar    1  UNL1        0.0008
     12 C          63.6545   90.7133   11.4782 C.ar    1  UNL1        0.0001
     13 C          63.9358   91.8574   10.5499 C.ar    1  UNL1        0.0009
     14 C          64.8784   92.9472   10.9668 C.ar    1  UNL1        0.0114
     15 C          65.5398   92.8929   12.3120 C.ar    1  UNL1        0.0577
     16 CL         66.4824   93.9827   12.7288 Cl      1  UNL1       -0.0822
     17 C          65.2585   91.7488   13.2403 C.ar    1  UNL1        0.0114
     18 N          62.7602   85.0179   12.8032 N.am    1  UNL1       -0.2809
     19 C          63.8679   85.5507   13.6630 C.2     1  UNL1        0.2495
     20 O          65.0329   84.6734   14.0142 O.2     1  UNL1       -0.2698
     21 H          61.9956   85.5937   12.5727 H       1  UNL1        0.1552
     22 C          63.6189   84.4752    9.9804 C.3     1  UNL1        0.0323
     23 C          63.2468   83.3366   10.8832 C.ar    1  UNL1       -0.0087
     24 C          63.3041   81.9266   10.3746 C.ar    1  UNL1       -0.0030
     25 C          62.9319   80.7880   11.2775 C.ar    1  UNL1        0.0006
     26 C          62.5026   81.0594   12.6888 C.ar    1  UNL1        0.0112
     27 C          62.4453   82.4694   13.1974 C.ar    1  UNL1       -0.0076
     28 C          62.0160   82.7407   14.6089 C.3     1  UNL1        0.0324
     29 C          62.8175   83.6080   12.2947 C.ar    1  UNL1        0.0425
     30 C          62.1304   79.9207   13.5917 C.2     1  UNL1        0.0726
     31 O          60.6879   79.5584   13.7862 O.co2   1  UNL1       -0.5446
     32 O          63.2008   79.1444   14.3000 O.co2   1  UNL1       -0.5446
@<TRIPOS>UNITY_ATOM_ATTR
31 1
charge -1
@<TRIPOS>BOND
     1    22    23    1
     2    23    24   ar
     3    24    25   ar
     4    25    26   ar
     5    26    30    1
     6    30    31   ar
     7    30    32   ar
     8    26    27   ar
     9    27    28    1
    10    27    29   ar
    11    29    18    1
    12    18    19   am
    13    19    20    2
    14    19     1    1
    15     1     2   ar
    16     2     3   ar
    17     3    11    1
    18    11    12   ar
    19    12    13   ar
    20    13    14   ar
    21    14    15   ar
    22    15    16    1
    23    15    17   ar
    24     3     4   ar
    25     4     5   ar
    26     5     6   ar
    27     6     7   ar
    28     7     8   ar
    29     8     9   ar
    30     9    10   ar
    31    29    23   ar
    32    10     1   ar
    33    17    11   ar
    34    10     5   ar
    35    18    21    1
@<TRIPOS>MOLECULE
*****
 32 35 0 0 0
SMALL
GASTEIGER

@<TRIPOS>ATOM
      1 C          62.3490   88.0675   11.3408 C.ar    1  UNL1        0.0537
      2 C          63.3004   89.1142   11.8401 C.ar    1  UNL1        0.0045
      3 C          63.3352   90.4665   11.1920 C.ar    1  UNL1        0.0002
      4 C          62.4188   90.7721   10.0446 C.ar    1  UNL1        0.0000
      5 C          61.4673   89.7254    9.5453 C.ar    1  UNL1        0.0001
      6 C          60.5508   90.0311    8.3979 C.ar    1  UNL1        0.0000
      7 C          59.5995   88.9844    7.8986 C.ar    1  UNL1        0.0000
      8 C          59.5646   87.6321    8.5467 C.ar    1  UNL1        0.0000
      9 C          60.4811   87.3265    9.6941 C.ar    1  UNL1        0.0001
     10 C          61.4324   88.3731   10.1934 C.ar    1  UNL1        0.0044
     11 C          64.2867   91.5132   11.6914 C.ar    1  UNL1        0.0008
     12 C          64.7944   92.5718   10.7579 C.ar    1  UNL1        0.0001
     13 C          65.7458   93.6184   11.2573 C.ar    1  UNL1        0.0009
     14 C          66.1894   93.6064   12.6902 C.ar    1  UNL1        0.0114
     15 C          65.6817   92.5477   13.6236 C.ar    1  UNL1        0.0577
     16 CL         66.1253   92.5357   15.0565 Cl      1  UNL1       -0.0822
     17 C          64.7303   91.5011   13.1243 C.ar    1  UNL1        0.0114
     18 N          63.5798   86.0988   12.5067 N.am    1  UNL1       -0.2809
     19 C          62.3141   86.7152   11.9889 C.2     1  UNL1        0.2495
     20 O          61.0135   85.9793   12.1192 O.2     1  UNL1       -0.2698
     21 H          64.4334   86.5818   12.4211 H       1  UNL1        0.1552
     22 C          64.0787   85.8341   15.4530 C.3     1  UNL1        0.0323
     23 C          63.7944   84.6142   14.6280 C.ar    1  UNL1       -0.0087
     24 C          63.7595   83.2618   15.2761 C.ar    1  UNL1       -0.0030
     25 C          63.4751   82.0418   14.4510 C.ar    1  UNL1        0.0006
     26 C          63.2256   82.1742   12.9778 C.ar    1  UNL1        0.0112
     27 C          63.2605   83.5265   12.3297 C.ar    1  UNL1       -0.0076
     28 C          63.0110   83.6588   10.8565 C.3     1  UNL1        0.0324
     29 C          63.5449   84.7465   13.1548 C.ar    1  UNL1        0.0425
     30 C          62.9413   80.9541   12.1527 C.2     1  UNL1        0.0726
     31 O          62.3708   79.7272   12.8000 O.co2   1  UNL1       -0.5446
     32 O          63.2273   80.9612   10.6803 O.co2   1  UNL1       -0.5446
@<TRIPOS>UNITY_ATOM_ATTR
31 1
charge -1
@<TRIPOS>BOND
     1    22    23    1
     2    23    24   ar
     3    24    25   ar
     4    25    26   ar
     5    26    30    1
     6    30    31   ar
     7    30    32   ar
     8    26    27   ar
     9    27    28    1
    10    27    29   ar
    11    29    18    1
    12    18    19   am
    13    19    20    2
    14    19     1    1
    15     1     2   ar
    16     2     3   ar
    17     3    11    1
    18    11    12   ar
    19    12    13   ar
    20    13    14   ar
    21    14    15   ar
    22    15    16    1
    23    15    17   ar
    24     3     4   ar
    25     4     5   ar
    26     5     6   ar
    27     6     7   ar
    28     7     8   ar
    29     8     9   ar
    30     9    10   ar
    31    29    23   ar
    32    10     1   ar
    33    17    11   ar
    34    10     5   ar
    35    18    21    1
@<TRIPOS>MOLECULE
*****
 32 35 0 0 0
SMALL
GASTEIGER

@<TRIPOS>ATOM
      1 C          63.3143   88.4412   12.5367 C.ar    1  UNL1        0.0537
      2 C          62.5009   88.2717   11.2879 C.ar    1  UNL1        0.0045
      3 C          61.9988   86.9130   10.8984 C.ar    1  UNL1        0.0002
      4 C          62.3101   85.7237   11.7578 C.ar    1  UNL1        0.0000
      5 C          63.1235   85.8931   13.0068 C.ar    1  UNL1        0.0001
      6 C          63.4347   84.7038   13.8662 C.ar    1  UNL1        0.0000
      7 C          64.2481   84.8733   15.1151 C.ar    1  UNL1        0.0000
      8 C          64.7502   86.2321   15.5045 C.ar    1  UNL1        0.0000
      9 C          64.4389   87.4214   14.6451 C.ar    1  UNL1        0.0001
     10 C          63.6256   87.2519   13.3962 C.ar    1  UNL1        0.0044
     11 C          61.1855   86.7435    9.6495 C.ar    1  UNL1        0.0008
     12 C          59.9158   87.5218    9.4699 C.ar    1  UNL1        0.0001
     13 C          59.1025   87.3524    8.2210 C.ar    1  UNL1        0.0009
     14 C          59.5588   86.4046    7.1517 C.ar    1  UNL1        0.0114
     15 C          60.8284   85.6263    7.3312 C.ar    1  UNL1        0.0577
     16 CL         61.2847   84.6785    6.2619 Cl      1  UNL1       -0.0822
     17 C          61.6418   85.7958    8.5801 C.ar    1  UNL1        0.0114
     18 N          65.0564   90.3525   12.2883 N.am    1  UNL1       -0.2809
     19 C          63.8163   89.8000   12.9262 C.2     1  UNL1        0.2495
     20 O          63.0783   90.6062   13.9535 O.2     1  UNL1       -0.2698
     21 H          65.5408   89.8234   11.6141 H       1  UNL1        0.1552
     22 C          64.6997   92.6749   10.4230 C.3     1  UNL1        0.0323
     23 C          65.3801   92.8725   11.7451 C.ar    1  UNL1       -0.0087
     24 C          65.8822   94.2313   12.1345 C.ar    1  UNL1       -0.0030
     25 C          66.5626   94.4288   13.4567 C.ar    1  UNL1        0.0006
     26 C          66.7410   93.2677   14.3893 C.ar    1  UNL1        0.0112
     27 C          66.2389   91.9089   13.9999 C.ar    1  UNL1       -0.0076
     28 C          66.4172   90.7477   14.9326 C.3     1  UNL1        0.0324
     29 C          65.5585   91.7113   12.6778 C.ar    1  UNL1        0.0425
     30 C          67.4214   93.4652   15.7115 C.2     1  UNL1        0.0726
     31 O          66.7226   93.0754   16.9802 O.co2   1  UNL1       -0.5446
     32 O          68.8005   94.0527   15.7649 O.co2   1  UNL1       -0.5446
@<TRIPOS>UNITY_ATOM_ATTR
31 1
charge -1
@<TRIPOS>BOND
     1    22    23    1
     2    23    24   ar
     3    24    25   ar
     4    25    26   ar
     5    26    30    1
     6    30    31   ar
     7    30    32   ar
     8    26    27   ar
     9    27    28    1
    10    27    29   ar
    11    29    18    1
    12    18    19   am
    13    19    20    2
    14    19     1    1
    15     1     2   ar
    16     2     3   ar
    17     3    11    1
    18    11    12   ar
    19    12    13   ar
    20    13    14   ar
    21    14    15   ar
    22    15    16    1
    23    15    17   ar
    24     3     4   ar
    25     4     5   ar
    26     5     6   ar
    27     6     7   ar
    28     7     8   ar
    29     8     9   ar
    30     9    10   ar
    31    29    23   ar
    32    10     1   ar
    33    17    11   ar
    34    10     5   ar
    35    18    21    1
