@<TRIPOS>MOLECULE
*****
 30 33 0 0 0
SMALL
GASTEIGER

@<TRIPOS>ATOM
      1 C          64.1276   89.5314   14.8887 C.ar    1  UNL1        0.1247
      2 C          64.3332   88.0476   14.8110 C.ar    1  UNL1        0.1182
      3 N          63.5601   87.4133   15.9289 N.ar    1  UNL1       -0.2208
      4 N          62.8766   88.5052   16.6976 N.ar    1  UNL1       -0.0633
      5 N          63.2274   89.8142   16.0547 N.ar    1  UNL1       -0.1287
      6 C          65.9004   92.5963   12.1113 C.ar    1  UNL1        0.1486
      7 C          66.6015   92.2495   13.3912 C.ar    1  UNL1        0.0375
      8 C          66.0106   91.2279   14.3170 C.ar    1  UNL1        0.0063
      9 C          64.7186   90.5531   13.9628 C.ar    1  UNL1        0.0403
     10 C          64.0175   90.8999   12.6829 C.ar    1  UNL1        0.1021
     11 N          64.6085   91.9215   11.7572 N.ar    1  UNL1       -0.2263
     12 C          68.1009   92.0196    9.7714 C.3     1  UNL1        0.0722
     13 C          67.5028   93.3529   10.1100 C.ar    1  UNL1        0.1258
     14 N          67.8111   94.6551    9.4325 N.ar    1  UNL1       -0.2289
     15 C          66.9902   95.7251   10.0893 C.ar    1  UNL1        0.1192
     16 C          66.1746   95.0841   11.1727 C.ar    1  UNL1        0.1031
     17 N          66.4914   93.6180   11.1855 N.ar    1  UNL1       -0.2771
     18 C          63.4838   85.9450   16.2261 C.3     1  UNL1        0.2139
     19 C          63.7178   84.9453   15.1325 C.2     1  UNL1        0.2511
     20 O          64.9542   84.0960   15.1448 O.2     1  UNL1       -0.2726
     21 N          62.7155   84.7949   14.0268 N.am    1  UNL1       -0.2816
     22 H          61.9040   85.3522   14.0188 H       1  UNL1        0.1549
     23 C          62.9495   83.7952   12.9333 C.ar    1  UNL1        0.0619
     24 C          63.5057   84.2431   11.6142 C.ar    1  UNL1        0.0156
     25 C          63.7398   83.2434   10.5206 C.ar    1  UNL1        0.0022
     26 C          63.4175   81.7958   10.7462 C.ar    1  UNL1        0.0123
     27 C          62.8613   81.3479   12.0653 C.ar    1  UNL1        0.0694
     28 CL         62.5391   79.9004   12.2908 Cl      1  UNL1       -0.0813
     29 C          62.6273   82.3477   13.1588 C.ar    1  UNL1        0.0816
     30 CL         62.0711   81.8999   14.4779 Cl      1  UNL1       -0.0801
@<TRIPOS>BOND
     1    12    13    1
     2    13    14   ar
     3    14    15   ar
     4    15    16   ar
     5    16    17   ar
     6    17     6    1
     7     6     7   ar
     8     7     8   ar
     9     8     9   ar
    10     9     1    1
    11     1     2   ar
    12     2     3   ar
    13     3    18    1
    14    18    19    1
    15    19    20    2
    16    19    21   am
    17    21    23    1
    18    23    24   ar
    19    24    25   ar
    20    25    26   ar
    21    26    27   ar
    22    27    28    1
    23    27    29   ar
    24    29    30    1
    25     3     4   ar
    26     4     5   ar
    27     9    10   ar
    28    10    11   ar
    29    17    13   ar
    30    11     6   ar
    31     5     1   ar
    32    29    23   ar
    33    21    22    1
@<TRIPOS>MOLECULE
*****
 30 33 0 0 0
SMALL
GASTEIGER

@<TRIPOS>ATOM
      1 C          64.0542   89.6308   14.9967 C.ar    1  UNL1        0.1247
      2 C          64.2969   88.1506   15.0104 C.ar    1  UNL1        0.1182
      3 N          63.4860   87.5582   16.1246 N.ar    1  UNL1       -0.2208
      4 N          62.7422   88.6723   16.7996 N.ar    1  UNL1       -0.0633
      5 N          63.0934   89.9532   16.1025 N.ar    1  UNL1       -0.1287
      6 C          65.8872   92.5854   12.1400 C.ar    1  UNL1        0.1486
      7 C          66.5623   92.2868   13.4457 C.ar    1  UNL1        0.0375
      8 C          65.9513   91.3020   14.3980 C.ar    1  UNL1        0.0063
      9 C          64.6652   90.6157   14.0444 C.ar    1  UNL1        0.0403
     10 C          63.9901   90.9143   12.7387 C.ar    1  UNL1        0.1021
     11 N          64.6011   91.8991   11.7865 N.ar    1  UNL1       -0.2263
     12 C          68.1097   91.9115    9.8473 C.3     1  UNL1        0.0722
     13 C          67.5197   93.2605   10.1339 C.ar    1  UNL1        0.1258
     14 N          67.8477   94.5366    9.4170 N.ar    1  UNL1       -0.2289
     15 C          67.0288   95.6351   10.0277 C.ar    1  UNL1        0.1192
     16 C          66.1948   95.0378   11.1220 C.ar    1  UNL1        0.1031
     17 N          66.4981   93.5702   11.1877 N.ar    1  UNL1       -0.2771
     18 C          63.4289   86.1066   16.4982 C.3     1  UNL1        0.2139
     19 C          63.6063   85.0535   15.4449 C.2     1  UNL1        0.2511
     20 O          64.9849   84.6471   15.0153 O.2     1  UNL1       -0.2726
     21 N          62.4052   84.4068   14.8212 N.am    1  UNL1       -0.2816
     22 H          61.5005   84.6735   15.1031 H       1  UNL1        0.1549
     23 C          62.5826   83.3537   13.7678 C.ar    1  UNL1        0.0619
     24 C          62.2980   81.9163   14.0890 C.ar    1  UNL1        0.0156
     25 C          62.4754   80.8632   13.0357 C.ar    1  UNL1        0.0022
     26 C          62.9374   81.2475   11.6612 C.ar    1  UNL1        0.0123
     27 C          63.2220   82.6847   11.3401 C.ar    1  UNL1        0.0694
     28 CL         63.6840   83.0689    9.9658 Cl      1  UNL1       -0.0813
     29 C          63.0446   83.7379   12.3935 C.ar    1  UNL1        0.0816
     30 CL         63.3292   85.1752   12.0724 Cl      1  UNL1       -0.0801
@<TRIPOS>BOND
     1    12    13    1
     2    13    14   ar
     3    14    15   ar
     4    15    16   ar
     5    16    17   ar
     6    17     6    1
     7     6     7   ar
     8     7     8   ar
     9     8     9   ar
    10     9     1    1
    11     1     2   ar
    12     2     3   ar
    13     3    18    1
    14    18    19    1
    15    19    20    2
    16    19    21   am
    17    21    23    1
    18    23    24   ar
    19    24    25   ar
    20    25    26   ar
    21    26    27   ar
    22    27    28    1
    23    27    29   ar
    24    29    30    1
    25     3     4   ar
    26     4     5   ar
    27     9    10   ar
    28    10    11   ar
    29    17    13   ar
    30    11     6   ar
    31     5     1   ar
    32    29    23   ar
    33    21    22    1
@<TRIPOS>MOLECULE
*****
 30 33 0 0 0
SMALL
GASTEIGER

@<TRIPOS>ATOM
      1 C          64.0926   89.2586   14.7507 C.ar    1  UNL1        0.1247
      2 C          65.1483   90.2462   14.3505 C.ar    1  UNL1        0.1182
      3 N          64.9471   91.4933   15.1593 N.ar    1  UNL1       -0.2208
      4 N          63.7670   91.2764   16.0596 N.ar    1  UNL1       -0.0633
      5 N          63.2389   89.8954   15.8070 N.ar    1  UNL1       -0.1287
      6 C          63.5772   85.1136   13.0766 C.ar    1  UNL1        0.1486
      7 C          64.2756   85.3107   14.3893 C.ar    1  UNL1        0.0375
      8 C          64.4474   86.6924   14.9474 C.ar    1  UNL1        0.0063
      9 C          63.9208   87.8769   14.1926 C.ar    1  UNL1        0.0403
     10 C          63.2224   87.6798   12.8799 C.ar    1  UNL1        0.1021
     11 N          63.0506   86.2981   12.3219 N.ar    1  UNL1       -0.2263
     12 C          62.1668   82.5929   14.5954 C.3     1  UNL1        0.0722
     13 C          62.7571   82.5733   13.2166 C.ar    1  UNL1        0.1258
     14 N          62.8028   81.3916   12.2939 N.ar    1  UNL1       -0.2289
     15 C          63.4793   81.8198   11.0254 C.ar    1  UNL1        0.1192
     16 C          63.8518   83.2662   11.1643 C.ar    1  UNL1        0.1031
     17 N          63.4054   83.7319   12.5185 N.ar    1  UNL1       -0.2771
     18 C          65.7798   92.7385   15.0817 C.3     1  UNL1        0.2139
     19 C          66.5331   93.0598   13.8250 C.2     1  UNL1        0.2511
     20 O          68.0332   93.0583   13.8287 O.2     1  UNL1       -0.2726
     21 N          65.7865   93.3827   12.5648 N.am    1  UNL1       -0.2816
     22 H          64.8020   93.3837   12.5624 H       1  UNL1        0.1549
     23 C          66.5399   93.7041   11.3081 C.ar    1  UNL1        0.0619
     24 C          67.2255   92.6102   10.5443 C.ar    1  UNL1        0.0156
     25 C          67.9788   92.9315    9.2876 C.ar    1  UNL1        0.0022
     26 C          68.0465   94.3467    8.7948 C.ar    1  UNL1        0.0123
     27 C          67.3610   95.4405    9.5586 C.ar    1  UNL1        0.0694
     28 CL         67.4287   96.8556    9.0659 Cl      1  UNL1       -0.0813
     29 C          66.6076   95.1192   10.8153 C.ar    1  UNL1        0.0816
     30 CL         65.9220   96.2129   11.5792 Cl      1  UNL1       -0.0801
@<TRIPOS>BOND
     1    12    13    1
     2    13    14   ar
     3    14    15   ar
     4    15    16   ar
     5    16    17   ar
     6    17     6    1
     7     6     7   ar
     8     7     8   ar
     9     8     9   ar
    10     9     1    1
    11     1     2   ar
    12     2     3   ar
    13     3    18    1
    14    18    19    1
    15    19    20    2
    16    19    21   am
    17    21    23    1
    18    23    24   ar
    19    24    25   ar
    20    25    26   ar
    21    26    27   ar
    22    27    28    1
    23    27    29   ar
    24    29    30    1
    25     3     4   ar
    26     4     5   ar
    27     9    10   ar
    28    10    11   ar
    29    17    13   ar
    30    11     6   ar
    31     5     1   ar
    32    29    23   ar
    33    21    22    1
@<TRIPOS>MOLECULE
*****
 30 33 0 0 0
SMALL
GASTEIGER

@<TRIPOS>ATOM
      1 C          63.8904   89.0093   14.3935 C.ar    1  UNL1        0.1247
      2 C          65.1362   89.8368   14.2777 C.ar    1  UNL1        0.1182
      3 N          64.8539   91.1852   14.8709 N.ar    1  UNL1       -0.2208
      4 N          63.4335   91.1912   15.3533 N.ar    1  UNL1       -0.0633
      5 N          62.8381   89.8465   15.0582 N.ar    1  UNL1       -0.1287
      6 C          63.3967   84.7616   12.9925 C.ar    1  UNL1        0.1486
      7 C          62.8233   85.8888   12.1859 C.ar    1  UNL1        0.0375
      8 C          62.9879   87.3047   12.6529 C.ar    1  UNL1        0.0063
      9 C          63.7258   87.5934   13.9265 C.ar    1  UNL1        0.0403
     10 C          64.2993   86.4662   14.7330 C.ar    1  UNL1        0.1021
     11 N          64.1347   85.0503   14.2660 N.ar    1  UNL1       -0.2263
     12 C          64.1583   83.6170   10.0328 C.3     1  UNL1        0.0722
     13 C          63.5822   82.8196   11.1651 C.ar    1  UNL1        0.1258
     14 N          63.2551   81.3560   11.1357 N.ar    1  UNL1       -0.2289
     15 C          62.7028   80.9775   12.4781 C.ar    1  UNL1        0.1192
     16 C          62.6886   82.2071   13.3369 C.ar    1  UNL1        0.1031
     17 N          63.2322   83.3456   12.5255 N.ar    1  UNL1       -0.2771
     18 C          65.8218   92.3272   14.9651 C.3     1  UNL1        0.2139
     19 C          66.5887   92.7625   13.7517 C.2     1  UNL1        0.2511
     20 O          68.0471   93.0946   13.8653 O.2     1  UNL1       -0.2726
     21 N          65.8971   92.8658   12.4246 N.am    1  UNL1       -0.2816
     22 H          64.9400   92.6479   12.3500 H       1  UNL1        0.1549
     23 C          66.6640   93.3011   11.2111 C.ar    1  UNL1        0.0619
     24 C          67.4366   92.2945   10.4113 C.ar    1  UNL1        0.0156
     25 C          68.2035   92.7298    9.1978 C.ar    1  UNL1        0.0022
     26 C          68.1976   94.1717    8.7843 C.ar    1  UNL1        0.0123
     27 C          67.4249   95.1783    9.5841 C.ar    1  UNL1        0.0694
     28 CL         67.4190   96.6201    9.1705 Cl      1  UNL1       -0.0813
     29 C          66.6581   94.7429   10.7975 C.ar    1  UNL1        0.0816
     30 CL         65.8854   95.7495   11.5974 Cl      1  UNL1       -0.0801
@<TRIPOS>BOND
     1    12    13    1
     2    13    14   ar
     3    14    15   ar
     4    15    16   ar
     5    16    17   ar
     6    17     6    1
     7     6     7   ar
     8     7     8   ar
     9     8     9   ar
    10     9     1    1
    11     1     2   ar
    12     2     3   ar
    13     3    18    1
    14    18    19    1
    15    19    20    2
    16    19    21   am
    17    21    23    1
    18    23    24   ar
    19    24    25   ar
    20    25    26   ar
    21    26    27   ar
    22    27    28    1
    23    27    29   ar
    24    29    30    1
    25     3     4   ar
    26     4     5   ar
    27     9    10   ar
    28    10    11   ar
    29    17    13   ar
    30    11     6   ar
    31     5     1   ar
    32    29    23   ar
    33    21    22    1
@<TRIPOS>MOLECULE
*****
 30 33 0 0 0
SMALL
GASTEIGER

@<TRIPOS>ATOM
      1 C          63.3597   89.6768   13.0814 C.ar    1  UNL1        0.1247
      2 C          64.5376   90.6055   13.0691 C.ar    1  UNL1        0.1182
      3 N          64.6153   91.2734   14.4099 N.ar    1  UNL1       -0.2208
      4 N          63.4854   90.7575   15.2509 N.ar    1  UNL1       -0.0633
      5 N          62.7094   89.7707   14.4298 N.ar    1  UNL1       -0.1287
      6 C          62.0134   87.0671    9.6716 C.ar    1  UNL1        0.1486
      7 C          61.9948   88.5599    9.5262 C.ar    1  UNL1        0.0375
      8 C          62.4436   89.4297   10.6628 C.ar    1  UNL1        0.0063
      9 C          62.9109   88.8068   11.9448 C.ar    1  UNL1        0.0403
     10 C          62.9295   87.3140   12.0902 C.ar    1  UNL1        0.1021
     11 N          62.4807   86.4442   10.9536 N.ar    1  UNL1       -0.2263
     12 C          59.0120   86.9776    8.3935 C.3     1  UNL1        0.0722
     13 C          60.1850   86.1560    7.9475 C.ar    1  UNL1        0.1258
     14 N          60.1845   85.1491    6.8357 N.ar    1  UNL1       -0.2289
     15 C          61.5637   84.5678    6.7360 C.ar    1  UNL1        0.1192
     16 C          62.4166   85.2156    7.7862 C.ar    1  UNL1        0.1031
     17 N          61.5646   86.1971    8.5349 N.ar    1  UNL1       -0.2771
     18 C          65.6424   92.2805   14.8351 C.3     1  UNL1        0.2139
     19 C          66.2891   93.1690   13.8141 C.2     1  UNL1        0.2511
     20 O          67.6980   93.6425   14.0167 O.2     1  UNL1       -0.2726
     21 N          65.5270   93.5841   12.5907 N.am    1  UNL1       -0.2816
     22 H          64.6024   93.2733   12.4577 H       1  UNL1        0.1549
     23 C          66.1737   94.4727   11.5698 C.ar    1  UNL1        0.0619
     24 C          66.1280   95.9627   11.7359 C.ar    1  UNL1        0.0156
     25 C          66.7747   96.8513   10.7150 C.ar    1  UNL1        0.0022
     26 C          67.4671   96.2497    9.5280 C.ar    1  UNL1        0.0123
     27 C          67.5128   94.7597    9.3619 C.ar    1  UNL1        0.0694
     28 CL         68.2051   94.1582    8.1750 Cl      1  UNL1       -0.0813
     29 C          66.8661   93.8712   10.3828 C.ar    1  UNL1        0.0816
     30 CL         66.9117   92.3811   10.2168 Cl      1  UNL1       -0.0801
@<TRIPOS>BOND
     1    12    13    1
     2    13    14   ar
     3    14    15   ar
     4    15    16   ar
     5    16    17   ar
     6    17     6    1
     7     6     7   ar
     8     7     8   ar
     9     8     9   ar
    10     9     1    1
    11     1     2   ar
    12     2     3   ar
    13     3    18    1
    14    18    19    1
    15    19    20    2
    16    19    21   am
    17    21    23    1
    18    23    24   ar
    19    24    25   ar
    20    25    26   ar
    21    26    27   ar
    22    27    28    1
    23    27    29   ar
    24    29    30    1
    25     3     4   ar
    26     4     5   ar
    27     9    10   ar
    28    10    11   ar
    29    17    13   ar
    30    11     6   ar
    31     5     1   ar
    32    29    23   ar
    33    21    22    1
@<TRIPOS>MOLECULE
*****
 30 33 0 0 0
SMALL
GASTEIGER

@<TRIPOS>ATOM
      1 C          63.9212   87.8525   13.8112 C.ar    1  UNL1        0.1247
      2 C          63.5356   88.9569   12.8723 C.ar    1  UNL1        0.1182
      3 N          64.0134   90.2521   13.4589 N.ar    1  UNL1       -0.2208
      4 N          64.6943   89.9481   14.7605 N.ar    1  UNL1       -0.0633
      5 N          64.6373   88.4651   14.9782 N.ar    1  UNL1       -0.1287
      6 C          63.0775   83.4708   13.2290 C.ar    1  UNL1        0.1486
      7 C          62.6661   84.4598   12.1789 C.ar    1  UNL1        0.0375
      8 C          62.9473   85.9203   12.3730 C.ar    1  UNL1        0.0063
      9 C          63.6400   86.3919   13.6171 C.ar    1  UNL1        0.0403
     10 C          64.0514   85.4029   14.6672 C.ar    1  UNL1        0.1021
     11 N          63.7702   83.9424   14.4731 N.ar    1  UNL1       -0.2263
     12 C          63.6456   81.7521   10.5136 C.3     1  UNL1        0.0722
     13 C          63.0574   81.2202   11.7868 C.ar    1  UNL1        0.1258
     14 N          62.6271   79.8050   12.0355 N.ar    1  UNL1       -0.2289
     15 C          62.1000   79.7202   13.4373 C.ar    1  UNL1        0.1192
     16 C          62.2046   81.0831   14.0550 C.ar    1  UNL1        0.1031
     17 N          62.7963   82.0102   13.0349 N.ar    1  UNL1       -0.2771
     18 C          63.8407   91.6124   12.8509 C.3     1  UNL1        0.2139
     19 C          64.6574   92.0094   11.6570 C.2     1  UNL1        0.2511
     20 O          64.1205   91.7882   10.2738 O.2     1  UNL1       -0.2726
     21 N          66.0109   92.6277   11.8461 N.am    1  UNL1       -0.2816
     22 H          66.3632   92.7729   12.7539 H       1  UNL1        0.1549
     23 C          66.8275   93.0248   10.6522 C.ar    1  UNL1        0.0619
     24 C          67.8090   92.0574   10.0597 C.ar    1  UNL1        0.0156
     25 C          68.6257   92.4545    8.8658 C.ar    1  UNL1        0.0022
     26 C          68.4609   93.8189    8.2645 C.ar    1  UNL1        0.0123
     27 C          67.4794   94.7861    8.8570 C.ar    1  UNL1        0.0694
     28 CL         67.3147   96.1503    8.2557 Cl      1  UNL1       -0.0813
     29 C          66.6628   94.3890   10.0509 C.ar    1  UNL1        0.0816
     30 CL         65.6813   95.3562   10.6435 Cl      1  UNL1       -0.0801
@<TRIPOS>BOND
     1    12    13    1
     2    13    14   ar
     3    14    15   ar
     4    15    16   ar
     5    16    17   ar
     6    17     6    1
     7     6     7   ar
     8     7     8   ar
     9     8     9   ar
    10     9     1    1
    11     1     2   ar
    12     2     3   ar
    13     3    18    1
    14    18    19    1
    15    19    20    2
    16    19    21   am
    17    21    23    1
    18    23    24   ar
    19    24    25   ar
    20    25    26   ar
    21    26    27   ar
    22    27    28    1
    23    27    29   ar
    24    29    30    1
    25     3     4   ar
    26     4     5   ar
    27     9    10   ar
    28    10    11   ar
    29    17    13   ar
    30    11     6   ar
    31     5     1   ar
    32    29    23   ar
    33    21    22    1
