@<TRIPOS>MOLECULE
*****
 13 14 0 0 0
SMALL
GASTEIGER

@<TRIPOS>ATOM
      1 N          68.8673   91.9657   13.6832 N.pl3   1  UNL1       -0.3255
      2 C          67.3766   92.0025   13.5206 C.ar    1  UNL1        0.2415
      3 O          66.3663   91.6353   14.5667 O.2     1  UNL1       -0.3370
      4 N          64.9997   91.8188   13.9760 N.ar    1  UNL1       -0.0721
      5 C          65.1655   92.2994   12.5648 C.ar    1  UNL1        0.1643
      6 C          66.6345   92.4130   12.2833 C.ar    1  UNL1        0.1562
      7 H          69.2623   91.6805   14.5387 H       1  UNL1        0.1452
      8 H          69.4508   92.2269   12.9344 H       1  UNL1        0.1452
      9 N          67.2528   92.8587   10.9914 N.ar    1  UNL1       -0.2221
     10 C          68.0072   91.9900   10.0290 C.ar    1  UNL1        0.1023
     11 C          68.4459   92.8458    8.8779 C.ar    1  UNL1        0.0431
     12 C          67.9627   94.2435    9.1289 C.ar    1  UNL1        0.1221
     13 N          67.2254   94.2515   10.4352 N.ar    1  UNL1       -0.1633
@<TRIPOS>BOND
     1     1     2    1
     2     2     3   ar
     3     3     4   ar
     4     4     5   ar
     5     5     6   ar
     6     6     9    1
     7     9    10   ar
     8    10    11   ar
     9    11    12   ar
    10    12    13   ar
    11     6     2   ar
    12    13     9   ar
    13     1     7    1
    14     1     8    1
@<TRIPOS>MOLECULE
*****
 13 14 0 0 0
SMALL
GASTEIGER

@<TRIPOS>ATOM
      1 N          64.5656   84.6066   15.4691 N.pl3   1  UNL1       -0.3255
      2 C          63.8798   85.1559   14.2533 C.ar    1  UNL1        0.2415
      3 O          63.7995   86.6023   13.8642 O.2     1  UNL1       -0.3370
      4 N          63.0239   86.6954   12.5836 N.ar    1  UNL1       -0.0721
      5 C          62.6249   85.3066   12.1813 C.ar    1  UNL1        0.1643
      6 C          63.1539   84.3551   13.2132 C.ar    1  UNL1        0.1562
      7 H          65.0174   85.2158   16.0967 H       1  UNL1        0.1452
      8 H          64.5639   83.6370   15.6393 H       1  UNL1        0.1452
      9 N          62.9863   82.8645   13.2062 N.ar    1  UNL1       -0.2221
     10 C          62.8247   82.0011   11.9903 C.ar    1  UNL1        0.1023
     11 C          62.6895   80.5786   12.4465 C.ar    1  UNL1        0.0431
     12 C          62.7675   80.5627   13.9444 C.ar    1  UNL1        0.1221
     13 N          62.9510   81.9756   14.4139 N.ar    1  UNL1       -0.1633
@<TRIPOS>BOND
     1     1     2    1
     2     2     3   ar
     3     3     4   ar
     4     4     5   ar
     5     5     6   ar
     6     6     9    1
     7     9    10   ar
     8    10    11   ar
     9    11    12   ar
    10    12    13   ar
    11     6     2   ar
    12    13     9   ar
    13     1     7    1
    14     1     8    1
@<TRIPOS>MOLECULE
*****
 13 14 0 0 0
SMALL
GASTEIGER

@<TRIPOS>ATOM
      1 N          64.1671   91.5383   11.2424 N.pl3   1  UNL1       -0.3255
      2 C          64.9430   92.0934   12.3999 C.ar    1  UNL1        0.2415
      3 O          64.5663   91.9838   13.8476 O.2     1  UNL1       -0.3370
      4 N          65.6224   92.6783   14.6553 N.ar    1  UNL1       -0.0721
      5 C          66.6518   93.2172   13.7068 C.ar    1  UNL1        0.1643
      6 C          66.2320   92.8557   12.3128 C.ar    1  UNL1        0.1562
      7 H          63.3273   91.0498   11.4017 H       1  UNL1        0.1452
      8 H          64.4976   91.6624   10.3234 H       1  UNL1        0.1452
      9 N          66.9713   93.1967   11.0530 N.ar    1  UNL1       -0.2221
     10 C          67.7034   92.2291   10.1711 C.ar    1  UNL1        0.1023
     11 C          68.2929   92.9995    9.0269 C.ar    1  UNL1        0.0431
     12 C          67.9251   94.4432    9.2017 C.ar    1  UNL1        0.1221
     13 N          67.1082   94.5651   10.4539 N.ar    1  UNL1       -0.1633
@<TRIPOS>BOND
     1     1     2    1
     2     2     3   ar
     3     3     4   ar
     4     4     5   ar
     5     5     6   ar
     6     6     9    1
     7     9    10   ar
     8    10    11   ar
     9    11    12   ar
    10    12    13   ar
    11     6     2   ar
    12    13     9   ar
    13     1     7    1
    14     1     8    1
@<TRIPOS>MOLECULE
*****
 13 14 0 0 0
SMALL
GASTEIGER

@<TRIPOS>ATOM
      1 N          62.7832   89.7471   15.3674 N.pl3   1  UNL1       -0.3255
      2 C          63.7175   90.6710   14.6440 C.ar    1  UNL1        0.2415
      3 O          64.5975   91.7079   15.2768 O.2     1  UNL1       -0.3370
      4 N          65.3598   92.3981   14.1847 N.ar    1  UNL1       -0.0721
      5 C          64.9509   91.7877   12.8769 C.ar    1  UNL1        0.1643
      6 C          63.9359   90.7203   13.1608 C.ar    1  UNL1        0.1562
      7 H          62.7090   89.7908   16.3481 H       1  UNL1        0.1452
      8 H          62.2441   89.0969   14.8615 H       1  UNL1        0.1452
      9 N          63.2583   89.8543   12.1406 N.ar    1  UNL1       -0.2221
     10 C          62.8146   90.2846   10.7739 C.ar    1  UNL1        0.1023
     11 C          62.1875   89.1022   10.0965 C.ar    1  UNL1        0.0431
     12 C          62.2437   87.9411   11.0446 C.ar    1  UNL1        0.1221
     13 N          62.9056   88.4060   12.3080 N.ar    1  UNL1       -0.1633
@<TRIPOS>BOND
     1     1     2    1
     2     2     3   ar
     3     3     4   ar
     4     4     5   ar
     5     5     6   ar
     6     6     9    1
     7     9    10   ar
     8    10    11   ar
     9    11    12   ar
    10    12    13   ar
    11     6     2   ar
    12    13     9   ar
    13     1     7    1
    14     1     8    1
@<TRIPOS>MOLECULE
*****
 13 14 0 0 0
SMALL
GASTEIGER

@<TRIPOS>ATOM
      1 N          65.2494   95.3749   10.4663 N.pl3   1  UNL1       -0.3255
      2 C          66.3770   94.4061   10.2663 C.ar    1  UNL1        0.2415
      3 O          67.7284   94.7303    9.7018 O.2     1  UNL1       -0.3370
      4 N          68.5377   93.4675    9.6824 N.ar    1  UNL1       -0.0721
      5 C          67.6866   92.3629   10.2349 C.ar    1  UNL1        0.1643
      6 C          66.3512   92.9430   10.5958 C.ar    1  UNL1        0.1562
      7 H          65.3632   96.3207   10.2178 H       1  UNL1        0.1452
      8 H          64.3956   95.0650   10.8459 H       1  UNL1        0.1452
      9 N          65.1933   92.1917   11.1831 N.ar    1  UNL1       -0.2221
     10 C          64.0040   91.6749   10.4290 C.ar    1  UNL1        0.1023
     11 C          63.0971   90.9892   11.4074 C.ar    1  UNL1        0.0431
     12 C          63.7257   91.0823   12.7661 C.ar    1  UNL1        0.1221
     13 N          65.0213   91.8255   12.6275 N.ar    1  UNL1       -0.1633
@<TRIPOS>BOND
     1     1     2    1
     2     2     3   ar
     3     3     4   ar
     4     4     5   ar
     5     5     6   ar
     6     6     9    1
     7     9    10   ar
     8    10    11   ar
     9    11    12   ar
    10    12    13   ar
    11     6     2   ar
    12    13     9   ar
    13     1     7    1
    14     1     8    1
@<TRIPOS>MOLECULE
*****
 13 14 0 0 0
SMALL
GASTEIGER

@<TRIPOS>ATOM
      1 N          67.1054   93.5911   10.9213 N.pl3   1  UNL1       -0.3255
      2 C          65.9419   92.7666   11.3866 C.ar    1  UNL1        0.2415
      3 O          64.7900   92.3107   10.5409 O.2     1  UNL1       -0.3370
      4 N          63.8622   91.5156   11.4110 N.ar    1  UNL1       -0.0721
      5 C          64.4408   91.4800   12.7945 C.ar    1  UNL1        0.1643
      6 C          65.7261   92.2532   12.7794 C.ar    1  UNL1        0.1562
      7 H          67.1584   93.8818    9.9822 H       1  UNL1        0.1452
      8 H          67.8160   93.8414   11.5549 H       1  UNL1        0.1452
      9 N          66.6358   92.4741   13.9514 N.ar    1  UNL1       -0.2221
     10 C          66.2179   92.5492   15.3900 C.ar    1  UNL1        0.1023
     11 C          67.4469   92.7803   16.2183 C.ar    1  UNL1        0.0431
     12 C          68.6245   92.8480   15.2916 C.ar    1  UNL1        0.1221
     13 N          68.1232   92.6588   13.8905 N.ar    1  UNL1       -0.1633
@<TRIPOS>BOND
     1     1     2    1
     2     2     3   ar
     3     3     4   ar
     4     4     5   ar
     5     5     6   ar
     6     6     9    1
     7     9    10   ar
     8    10    11   ar
     9    11    12   ar
    10    12    13   ar
    11     6     2   ar
    12    13     9   ar
    13     1     7    1
    14     1     8    1
@<TRIPOS>MOLECULE
*****
 13 14 0 0 0
SMALL
GASTEIGER

@<TRIPOS>ATOM
      1 N          63.1216   90.5671   14.2375 N.pl3   1  UNL1       -0.3255
      2 C          63.6753   91.1115   12.9541 C.ar    1  UNL1        0.2415
      3 O          63.0176   91.0369   11.6081 O.2     1  UNL1       -0.3370
      4 N          63.9198   91.7054   10.6135 N.ar    1  UNL1       -0.0721
      5 C          65.1352   92.1931   11.3449 C.ar    1  UNL1        0.1643
      6 C          64.9841   91.8261   12.7914 C.ar    1  UNL1        0.1562
      7 H          62.2490   90.1112   14.2429 H       1  UNL1        0.1452
      8 H          63.6307   90.6657   15.0743 H       1  UNL1        0.1452
      9 N          65.9689   92.1217   13.8835 N.ar    1  UNL1       -0.2221
     10 C          67.4611   92.0102   13.7791 C.ar    1  UNL1        0.1023
     11 C          68.0489   92.4004   15.1028 C.ar    1  UNL1        0.0431
     12 C          66.9200   92.7531   16.0254 C.ar    1  UNL1        0.1221
     13 N          65.6345   92.5809   15.2718 N.ar    1  UNL1       -0.1633
@<TRIPOS>BOND
     1     1     2    1
     2     2     3   ar
     3     3     4   ar
     4     4     5   ar
     5     5     6   ar
     6     6     9    1
     7     9    10   ar
     8    10    11   ar
     9    11    12   ar
    10    12    13   ar
    11     6     2   ar
    12    13     9   ar
    13     1     7    1
    14     1     8    1
@<TRIPOS>MOLECULE
*****
 13 14 0 0 0
SMALL
GASTEIGER

@<TRIPOS>ATOM
      1 N          62.6384   84.6663   13.7068 N.pl3   1  UNL1       -0.3255
      2 C          63.2693   84.0182   12.5102 C.ar    1  UNL1        0.2415
      3 O          64.2166   82.8554   12.5342 O.2     1  UNL1       -0.3370
      4 N          64.5965   82.5375   11.1184 N.ar    1  UNL1       -0.0721
      5 C          63.8840   83.5039   10.2192 C.ar    1  UNL1        0.1643
      6 C          63.0638   84.4190   11.0794 C.ar    1  UNL1        0.1562
      7 H          62.8363   84.3297   14.6105 H       1  UNL1        0.1452
      8 H          62.0263   85.4283   13.5883 H       1  UNL1        0.1452
      9 N          62.1913   85.5384   10.5940 N.ar    1  UNL1       -0.2221
     10 C          62.0887   86.0264    9.1793 C.ar    1  UNL1        0.1023
     11 C          61.1021   87.1559    9.1490 C.ar    1  UNL1        0.0431
     12 C          60.5950   87.3660   10.5450 C.ar    1  UNL1        0.1221
     13 N          61.2681   86.3663   11.4380 N.ar    1  UNL1       -0.1633
@<TRIPOS>BOND
     1     1     2    1
     2     2     3   ar
     3     3     4   ar
     4     4     5   ar
     5     5     6   ar
     6     6     9    1
     7     9    10   ar
     8    10    11   ar
     9    11    12   ar
    10    12    13   ar
    11     6     2   ar
    12    13     9   ar
    13     1     7    1
    14     1     8    1
@<TRIPOS>MOLECULE
*****
 13 14 0 0 0
SMALL
GASTEIGER

@<TRIPOS>ATOM
      1 N          66.5500   93.9575   14.2420 N.pl3   1  UNL1       -0.3255
      2 C          66.3040   93.7581   12.7759 C.ar    1  UNL1        0.2415
      3 O          66.9068   94.5634   11.6631 O.2     1  UNL1       -0.3370
      4 N          66.3873   94.0213   10.3645 N.ar    1  UNL1       -0.0721
      5 C          65.4635   92.8810   10.6747 C.ar    1  UNL1        0.1643
      6 C          65.4120   92.7183   12.1650 C.ar    1  UNL1        0.1562
      7 H          67.1559   94.6712   14.5469 H       1  UNL1        0.1452
      8 H          66.1057   93.3748   14.8995 H       1  UNL1        0.1452
      9 N          64.6094   91.6954   12.9130 N.ar    1  UNL1       -0.2221
     10 C          63.6927   90.6763   12.3038 C.ar    1  UNL1        0.1023
     11 C          63.0993   89.8631   13.4158 C.ar    1  UNL1        0.0431
     12 C          63.6493   90.3796   14.7123 C.ar    1  UNL1        0.1221
     13 N          64.5826   91.5121   14.4015 N.ar    1  UNL1       -0.1633
@<TRIPOS>BOND
     1     1     2    1
     2     2     3   ar
     3     3     4   ar
     4     4     5   ar
     5     5     6   ar
     6     6     9    1
     7     9    10   ar
     8    10    11   ar
     9    11    12   ar
    10    12    13   ar
    11     6     2   ar
    12    13     9   ar
    13     1     7    1
    14     1     8    1
