@<TRIPOS>MOLECULE
*****
 45 46 0 0 0
SMALL
GASTEIGER

@<TRIPOS>ATOM
      1 C          63.6996   89.4677   12.9063 C.3     1  UNL1        0.1514
      2 C          62.7858   88.9197   11.8506 C.3     1  UNL1        0.0326
      3 C          62.5324   89.7038   10.5973 C.3     1  UNL1        0.0026
      4 C          61.1360   90.1222   10.2438 C.3     1  UNL1        0.0001
      5 C          60.1510   89.1051    9.7485 C.3     1  UNL1        0.0000
      6 C          59.9090   88.9502    8.2763 C.3     1  UNL1        0.0000
      7 C          59.3852   87.6530    7.7347 C.3     1  UNL1        0.0000
      8 C          59.9317   86.3523    8.2442 C.3     1  UNL1        0.0000
      9 C          61.3595   85.9810    7.9730 C.3     1  UNL1        0.0000
     10 C          62.3734   86.0439    9.0766 C.3     1  UNL1        0.0000
     11 C          61.9900   85.6455   10.4709 C.3     1  UNL1        0.0000
     12 C          62.6832   84.4958   11.1399 C.3     1  UNL1        0.0000
     13 C          63.7250   83.7131   10.3969 C.3     1  UNL1        0.0000
     14 C          63.9621   82.2709   10.7343 C.3     1  UNL1        0.0000
     15 C          62.9377   81.5060   11.5190 C.3     1  UNL1        0.0000
     16 C          63.1565   81.2399   12.9789 C.3     1  UNL1        0.0000
     17 C          62.1416   81.6961   13.9847 C.3     1  UNL1        0.0003
     18 C          62.3779   82.9503   14.7728 C.3     1  UNL1        0.0088
     19 C          63.7783   83.4252   15.0248 C.3     1  UNL1        0.1033
     20 C          64.1860   84.8094   14.6151 C.3     1  UNL1        0.3978
     21 F          64.5937   86.1936   14.2055 F       1  UNL1       -0.1700
     22 F          64.9590   84.2406   13.4624 F       1  UNL1       -0.1700
     23 F          63.4129   85.3781   15.7680 F       1  UNL1       -0.1700
     24 O          63.5023   89.0829   14.3426 O.3     1  UNL1       -0.2926
     25 P          63.4739   90.1410   15.4055 P.3     1  UNL1        0.3697
     26 O          62.3448   89.4262   16.0868 O.2     1  UNL1       -0.2553
     27 O          63.4455   91.1990   16.4684 O.3     1  UNL1       -0.3218
     28 H          62.7510   90.9913   17.1129 H       1  UNL1        0.2198
     29 C          64.6030   90.8557   14.7241 C.3     1  UNL1        0.2579
     30 O          65.3513   91.9364   15.4467 O.3     1  UNL1       -0.3426
     31 C          67.6683   92.9921   15.9634 C.3     1  UNL1        0.0342
     32 C          66.7337   92.3156   15.0048 C.3     1  UNL1        0.1387
     33 C          67.1815   92.0183   13.6043 C.3     1  UNL1        0.1384
     34 N          66.8746   92.9835   12.4979 N.ar    1  UNL1       -0.2918
     35 C          65.9672   94.1742   12.5931 C.ar    1  UNL1        0.1798
     36 N          65.9530   94.8540   11.2561 N.ar    1  UNL1       -0.2195
     37 C          66.8515   94.0836   10.3346 C.ar    1  UNL1        0.1481
     38 C          67.2247   94.2853    8.8959 C.ar    1  UNL1        0.1480
     39 N          66.6551   95.4414    8.1284 N.pl3   1  UNL1       -0.3413
     40 N          68.1674   93.3310    8.2247 N.ar    1  UNL1       -0.2078
     41 C          68.7370   92.1750    8.9922 C.ar    1  UNL1        0.2015
     42 N          68.3638   91.9732   10.4310 N.ar    1  UNL1       -0.2048
     43 C          67.4211   92.9275   11.1022 C.ar    1  UNL1        0.1674
     44 H          66.0363   96.0677    8.5689 H       1  UNL1        0.1438
     45 H          66.9000   95.5738    7.1841 H       1  UNL1        0.1438
@<TRIPOS>BOND
     1    32    31    1
     2    32    33    1
     3    33    34    1
     4    34    35   ar
     5    35    36   ar
     6    36    37   ar
     7    37    38   ar
     8    38    39    1
     9    38    40   ar
    10    40    41   ar
    11    41    42   ar
    12    42    43   ar
    13    32    30    1
    14    30    29    1
    15    29    25    1
    16    25    26    2
    17    25    27    1
    18    25    24    1
    19    24     1    1
    20     1     2    1
    21     2     3    1
    22     3     4    1
    23     4     5    1
    24     5     6    1
    25     6     7    1
    26     7     8    1
    27     8     9    1
    28     9    10    1
    29    10    11    1
    30    11    12    1
    31    12    13    1
    32    13    14    1
    33    14    15    1
    34    15    16    1
    35    16    17    1
    36    17    18    1
    37    18    19    1
    38    19    20    1
    39    20    21    1
    40    20    22    1
    41    20    23    1
    42    43    34   ar
    43    43    37   ar
    44    39    44    1
    45    39    45    1
    46    27    28    1
@<TRIPOS>MOLECULE
*****
 45 46 0 0 0
SMALL
GASTEIGER

@<TRIPOS>ATOM
      1 C          64.4796   88.0166   14.9055 C.3     1  UNL1        0.1514
      2 C          64.2558   86.6853   14.2516 C.3     1  UNL1        0.0326
      3 C          64.2186   85.4378   15.0837 C.3     1  UNL1        0.0026
      4 C          64.4717   84.1036   14.4467 C.3     1  UNL1        0.0001
      5 C          63.7397   82.8886   14.9346 C.3     1  UNL1        0.0000
      6 C          62.3588   82.5918   14.4298 C.3     1  UNL1        0.0000
      7 C          62.1665   81.6392   13.2870 C.3     1  UNL1        0.0000
      8 C          63.1987   81.5512   12.2022 C.3     1  UNL1        0.0000
      9 C          63.0245   82.3356   10.9357 C.3     1  UNL1        0.0000
     10 C          63.3915   83.7895   10.8974 C.3     1  UNL1        0.0000
     11 C          62.4563   84.8143   11.4676 C.3     1  UNL1        0.0000
     12 C          62.2765   86.1330   10.7756 C.3     1  UNL1        0.0000
     13 C          61.9414   86.1735    9.3141 C.3     1  UNL1        0.0000
     14 C          60.5089   86.2429    8.8747 C.3     1  UNL1        0.0000
     15 C          60.0589   87.3388    7.9546 C.3     1  UNL1        0.0000
     16 C          60.0594   88.7624    8.4272 C.3     1  UNL1        0.0000
     17 C          59.8366   89.0711    9.8780 C.3     1  UNL1        0.0003
     18 C          60.9468   89.6564   10.6995 C.3     1  UNL1        0.0088
     19 C          62.2900   89.9023   10.0785 C.3     1  UNL1        0.1033
     20 C          63.3038   90.7454   10.7935 C.3     1  UNL1        0.3978
     21 F          64.3177   91.5884   11.5086 F       1  UNL1       -0.1700
     22 F          63.4751   89.6671   11.8221 F       1  UNL1       -0.1700
     23 F          63.1326   91.8237    9.7649 F       1  UNL1       -0.1700
     24 O          63.5451   89.1561   14.6259 O.3     1  UNL1       -0.2926
     25 P          63.5012   90.3348   15.5525 P.3     1  UNL1        0.3697
     26 O          62.3525   89.7126   16.2896 O.2     1  UNL1       -0.2553
     27 O          63.4573   91.5135   16.4792 O.3     1  UNL1       -0.3218
     28 H          62.7474   91.3882   17.1283 H       1  UNL1        0.2198
     29 C          64.6499   90.9570   14.8155 C.3     1  UNL1        0.2579
     30 O          65.5445   91.9389   15.5122 O.3     1  UNL1       -0.3426
     31 C          68.0177   92.5316   16.0436 C.3     1  UNL1        0.0342
     32 C          66.9649   92.1103   15.0616 C.3     1  UNL1        0.1387
     33 C          67.3326   91.8605   13.6289 C.3     1  UNL1        0.1384
     34 N          66.9684   92.8640   12.5752 N.ar    1  UNL1       -0.2918
     35 C          66.0479   94.0349   12.7533 C.ar    1  UNL1        0.1798
     36 N          65.9713   94.7673   11.4465 N.ar    1  UNL1       -0.2195
     37 C          66.8445   94.0491   10.4607 C.ar    1  UNL1        0.1481
     38 C          67.1581   94.3143    9.0181 C.ar    1  UNL1        0.1480
     39 N          66.5419   95.4906    8.3206 N.pl3   1  UNL1       -0.3413
     40 N          68.0879   93.4032    8.2730 N.ar    1  UNL1       -0.2078
     41 C          68.7042   92.2268    8.9705 C.ar    1  UNL1        0.2015
     42 N          68.3905   91.9617   10.4132 N.ar    1  UNL1       -0.2048
     43 C          67.4607   92.8728   11.1583 C.ar    1  UNL1        0.1674
     44 H          65.9316   96.0886    8.8096 H       1  UNL1        0.1438
     45 H          66.7477   95.6646    7.3737 H       1  UNL1        0.1438
@<TRIPOS>BOND
     1    32    31    1
     2    32    33    1
     3    33    34    1
     4    34    35   ar
     5    35    36   ar
     6    36    37   ar
     7    37    38   ar
     8    38    39    1
     9    38    40   ar
    10    40    41   ar
    11    41    42   ar
    12    42    43   ar
    13    32    30    1
    14    30    29    1
    15    29    25    1
    16    25    26    2
    17    25    27    1
    18    25    24    1
    19    24     1    1
    20     1     2    1
    21     2     3    1
    22     3     4    1
    23     4     5    1
    24     5     6    1
    25     6     7    1
    26     7     8    1
    27     8     9    1
    28     9    10    1
    29    10    11    1
    30    11    12    1
    31    12    13    1
    32    13    14    1
    33    14    15    1
    34    15    16    1
    35    16    17    1
    36    17    18    1
    37    18    19    1
    38    19    20    1
    39    20    21    1
    40    20    22    1
    41    20    23    1
    42    43    34   ar
    43    43    37   ar
    44    39    44    1
    45    39    45    1
    46    27    28    1
@<TRIPOS>MOLECULE
*****
 45 46 0 0 0
SMALL
GASTEIGER

@<TRIPOS>ATOM
      1 C          63.1907   89.4205   16.6431 C.3     1  UNL1        0.1514
      2 C          63.0763   88.1488   17.4302 C.3     1  UNL1        0.0326
      3 C          62.7076   86.8696   16.7391 C.3     1  UNL1        0.0026
      4 C          63.7792   85.9936   16.1609 C.3     1  UNL1        0.0001
      5 C          64.2746   86.2359   14.7660 C.3     1  UNL1        0.0000
      6 C          63.9948   85.2333   13.6860 C.3     1  UNL1        0.0000
      7 C          62.9141   84.2101   13.8741 C.3     1  UNL1        0.0000
      8 C          62.8939   82.9753   13.0227 C.3     1  UNL1        0.0000
      9 C          63.9892   82.7328   12.0270 C.3     1  UNL1        0.0000
     10 C          63.6794   82.7194   10.5595 C.3     1  UNL1        0.0000
     11 C          63.7662   83.9875    9.7630 C.3     1  UNL1        0.0000
     12 C          62.7361   85.0619    9.9488 C.3     1  UNL1        0.0000
     13 C          62.4428   86.0207    8.8332 C.3     1  UNL1        0.0000
     14 C          61.4619   85.6472    7.7616 C.3     1  UNL1        0.0000
     15 C          60.0581   86.1730    7.8135 C.3     1  UNL1        0.0000
     16 C          59.6786   87.1978    8.8411 C.3     1  UNL1        0.0000
     17 C          59.9787   88.6476    8.6009 C.3     1  UNL1        0.0003
     18 C          60.9655   89.3640    9.4745 C.3     1  UNL1        0.0088
     19 C          60.4807   90.2432   10.5890 C.3     1  UNL1        0.1033
     20 C          59.5354   89.6974   11.6179 C.3     1  UNL1        0.3978
     21 F          58.5902   89.1515   12.6468 F       1  UNL1       -0.1700
     22 F          60.3441   88.4362   11.6917 F       1  UNL1       -0.1700
     23 F          58.7268   90.9587   11.5440 F       1  UNL1       -0.1700
     24 O          62.6788   89.4793   15.2344 O.3     1  UNL1       -0.2926
     25 P          63.5214   90.0917   14.1551 P.3     1  UNL1        0.3697
     26 O          62.7953   89.2771   13.1260 O.2     1  UNL1       -0.2553
     27 O          64.3640   90.7041   13.0758 O.3     1  UNL1       -0.3218
     28 H          64.1029   90.3394   12.2157 H       1  UNL1        0.2198
     29 C          64.2475   90.9064   15.1842 C.3     1  UNL1        0.2579
     30 O          64.9235   92.1854   14.7880 O.3     1  UNL1       -0.3426
     31 C          67.0895   92.4706   16.1941 C.3     1  UNL1        0.0342
     32 C          66.4173   92.2992   14.8642 C.3     1  UNL1        0.1387
     33 C          67.2388   92.2416   13.6104 C.3     1  UNL1        0.1384
     34 N          66.9310   93.1647   12.4689 N.ar    1  UNL1       -0.2918
     35 C          66.0462   94.3746   12.5274 C.ar    1  UNL1        0.1798
     36 N          66.0223   94.9977   11.1632 N.ar    1  UNL1       -0.2195
     37 C          66.8922   94.1729   10.2615 C.ar    1  UNL1        0.1481
     38 C          67.2456   94.3071    8.8100 C.ar    1  UNL1        0.1480
     39 N          66.6840   95.4399    8.0030 N.pl3   1  UNL1       -0.3413
     40 N          68.1605   93.3084    8.1654 N.ar    1  UNL1       -0.2078
     41 C          68.7221   92.1756    8.9724 C.ar    1  UNL1        0.2015
     42 N          68.3688   92.0414   10.4240 N.ar    1  UNL1       -0.2048
     43 C          67.4539   93.0401   11.0686 C.ar    1  UNL1        0.1674
     44 H          66.0835   96.0954    8.4260 H       1  UNL1        0.1438
     45 H          66.9159   95.5280    7.0502 H       1  UNL1        0.1438
@<TRIPOS>BOND
     1    32    31    1
     2    32    33    1
     3    33    34    1
     4    34    35   ar
     5    35    36   ar
     6    36    37   ar
     7    37    38   ar
     8    38    39    1
     9    38    40   ar
    10    40    41   ar
    11    41    42   ar
    12    42    43   ar
    13    32    30    1
    14    30    29    1
    15    29    25    1
    16    25    26    2
    17    25    27    1
    18    25    24    1
    19    24     1    1
    20     1     2    1
    21     2     3    1
    22     3     4    1
    23     4     5    1
    24     5     6    1
    25     6     7    1
    26     7     8    1
    27     8     9    1
    28     9    10    1
    29    10    11    1
    30    11    12    1
    31    12    13    1
    32    13    14    1
    33    14    15    1
    34    15    16    1
    35    16    17    1
    36    17    18    1
    37    18    19    1
    38    19    20    1
    39    20    21    1
    40    20    22    1
    41    20    23    1
    42    43    34   ar
    43    43    37   ar
    44    39    44    1
    45    39    45    1
    46    27    28    1
@<TRIPOS>MOLECULE
*****
 45 46 0 0 0
SMALL
GASTEIGER

@<TRIPOS>ATOM
      1 C          63.9806   88.9788   14.8739 C.3     1  UNL1        0.1514
      2 C          64.2117   87.6469   14.2236 C.3     1  UNL1        0.0326
      3 C          64.8655   86.5390   14.9950 C.3     1  UNL1        0.0026
      4 C          64.0383   85.4075   15.5292 C.3     1  UNL1        0.0001
      5 C          63.9932   84.0999   14.7956 C.3     1  UNL1        0.0000
      6 C          62.9981   83.0505   15.1937 C.3     1  UNL1        0.0000
      7 C          61.8353   82.7412   14.2979 C.3     1  UNL1        0.0000
      8 C          61.3117   81.3386   14.2059 C.3     1  UNL1        0.0000
      9 C          62.2142   80.2292   13.7535 C.3     1  UNL1        0.0000
     10 C          62.7832   80.2439   12.3657 C.3     1  UNL1        0.0000
     11 C          63.6226   81.4011   11.9115 C.3     1  UNL1        0.0000
     12 C          63.4139   81.9891   10.5474 C.3     1  UNL1        0.0000
     13 C          63.7773   83.4203   10.2840 C.3     1  UNL1        0.0000
     14 C          63.6439   84.4411   11.3750 C.3     1  UNL1        0.0000
     15 C          62.3286   85.1241   11.6062 C.3     1  UNL1        0.0000
     16 C          62.1628   86.5720   11.2511 C.3     1  UNL1        0.0000
     17 C          61.0609   86.9959   10.3259 C.3     1  UNL1        0.0003
     18 C          60.7795   86.2050    9.0828 C.3     1  UNL1        0.0088
     19 C          61.9098   85.7755    8.1950 C.3     1  UNL1        0.1033
     20 C          61.6308   84.9628    6.9656 C.3     1  UNL1        0.3978
     21 F          61.3517   84.1501    5.7361 F       1  UNL1       -0.1700
     22 F          63.0930   84.6535    6.8381 F       1  UNL1       -0.1700
     23 F          60.1685   85.2721    7.0931 F       1  UNL1       -0.1700
     24 O          63.0108   89.9504   14.2694 O.3     1  UNL1       -0.2926
     25 P          62.9869   90.1606   12.7844 P.3     1  UNL1        0.3697
     26 O          61.6124   89.5631   12.7220 O.2     1  UNL1       -0.2553
     27 O          62.9629   90.3708   11.2994 O.3     1  UNL1       -0.3218
     28 H          62.1197   90.0519   10.9413 H       1  UNL1        0.2198
     29 C          64.3613   90.7580   12.8468 C.3     1  UNL1        0.2579
     30 O          64.5718   92.0878   13.5082 O.3     1  UNL1       -0.3426
     31 C          66.8013   91.4697   14.6903 C.3     1  UNL1        0.0342
     32 C          65.9374   92.4773   13.9915 C.3     1  UNL1        0.1387
     33 C          66.4390   93.8745   13.7759 C.3     1  UNL1        0.1384
     34 N          66.5118   94.4394   12.3883 N.ar    1  UNL1       -0.2918
     35 C          65.9935   95.7780   11.9530 C.ar    1  UNL1        0.1798
     36 N          66.2772   95.9308   10.4880 N.ar    1  UNL1       -0.2195
     37 C          66.9708   94.6867   10.0179 C.ar    1  UNL1        0.1481
     38 C          67.4890   94.2740    8.6721 C.ar    1  UNL1        0.1480
     39 N          67.3439   95.1958    7.4977 N.pl3   1  UNL1       -0.3413
     40 N          68.1523   92.9397    8.5008 N.ar    1  UNL1       -0.2078
     41 C          68.2973   92.0179    9.6753 C.ar    1  UNL1        0.2015
     42 N          67.7791   92.4305   11.0210 N.ar    1  UNL1       -0.2048
     43 C          67.1158   93.7649   11.1923 C.ar    1  UNL1        0.1674
     44 H          66.9086   96.0716    7.6101 H       1  UNL1        0.1438
     45 H          67.6841   94.9249    6.6144 H       1  UNL1        0.1438
@<TRIPOS>BOND
     1    32    31    1
     2    32    33    1
     3    33    34    1
     4    34    35   ar
     5    35    36   ar
     6    36    37   ar
     7    37    38   ar
     8    38    39    1
     9    38    40   ar
    10    40    41   ar
    11    41    42   ar
    12    42    43   ar
    13    32    30    1
    14    30    29    1
    15    29    25    1
    16    25    26    2
    17    25    27    1
    18    25    24    1
    19    24     1    1
    20     1     2    1
    21     2     3    1
    22     3     4    1
    23     4     5    1
    24     5     6    1
    25     6     7    1
    26     7     8    1
    27     8     9    1
    28     9    10    1
    29    10    11    1
    30    11    12    1
    31    12    13    1
    32    13    14    1
    33    14    15    1
    34    15    16    1
    35    16    17    1
    36    17    18    1
    37    18    19    1
    38    19    20    1
    39    20    21    1
    40    20    22    1
    41    20    23    1
    42    43    34   ar
    43    43    37   ar
    44    39    44    1
    45    39    45    1
    46    27    28    1
@<TRIPOS>MOLECULE
*****
 45 46 0 0 0
SMALL
GASTEIGER

@<TRIPOS>ATOM
      1 C          63.1186   87.9069   12.2169 C.3     1  UNL1        0.1514
      2 C          62.7192   86.4767   12.0047 C.3     1  UNL1        0.0326
      3 C          61.4856   86.1517   11.2157 C.3     1  UNL1        0.0026
      4 C          60.4662   87.2181   10.9445 C.3     1  UNL1        0.0001
      5 C          60.4007   87.8671    9.5939 C.3     1  UNL1        0.0000
      6 C          59.4558   87.3417    8.5542 C.3     1  UNL1        0.0000
      7 C          59.9912   86.6577    7.3312 C.3     1  UNL1        0.0000
      8 C          60.6362   85.3086    7.4481 C.3     1  UNL1        0.0000
      9 C          62.0997   85.1495    7.1609 C.3     1  UNL1        0.0000
     10 C          63.0844   85.0956    8.2912 C.3     1  UNL1        0.0000
     11 C          63.1819   83.8647    9.1428 C.3     1  UNL1        0.0000
     12 C          64.3356   83.6950   10.0863 C.3     1  UNL1        0.0000
     13 C          64.3031   82.6122   11.1238 C.3     1  UNL1        0.0000
     14 C          63.1198   81.6947   11.2136 C.3     1  UNL1        0.0000
     15 C          62.9037   80.8679   12.4463 C.3     1  UNL1        0.0000
     16 C          61.8131   81.2299   13.4105 C.3     1  UNL1        0.0000
     17 C          62.0880   82.1936   14.5266 C.3     1  UNL1        0.0003
     18 C          62.4628   83.6126   14.2171 C.3     1  UNL1        0.0088
     19 C          62.9569   84.5134   15.3102 C.3     1  UNL1        0.1033
     20 C          64.2367   85.2754   15.1330 C.3     1  UNL1        0.3978
     21 F          65.5164   86.0375   14.9558 F       1  UNL1       -0.1700
     22 F          64.5816   84.4209   13.9495 F       1  UNL1       -0.1700
     23 F          63.8916   86.1300   16.3166 F       1  UNL1       -0.1700
     24 O          63.8496   88.3042   13.4650 O.3     1  UNL1       -0.2926
     25 P          63.5120   89.5933   14.1537 P.3     1  UNL1        0.3697
     26 O          64.2688   89.1428   15.3679 O.2     1  UNL1       -0.2553
     27 O          63.1745   90.8824   14.8424 O.3     1  UNL1       -0.3218
     28 H          63.5632   90.8856   15.7311 H       1  UNL1        0.2198
     29 C          62.7553   90.0438   12.9395 C.3     1  UNL1        0.2579
     30 O          63.0206   91.3972   12.3497 O.3     1  UNL1       -0.3426
     31 C          62.8633   90.6337    9.8714 C.3     1  UNL1        0.0342
     32 C          63.4645   91.5194   10.9221 C.3     1  UNL1        0.1387
     33 C          64.5096   92.5273   10.5452 C.3     1  UNL1        0.1384
     34 N          65.8972   92.4134   11.1034 N.ar    1  UNL1       -0.2918
     35 C          67.1568   92.2441   10.3067 C.ar    1  UNL1        0.1798
     36 N          68.3069   92.1748   11.2672 N.ar    1  UNL1       -0.2195
     37 C          67.7581   92.3014   12.6575 C.ar    1  UNL1        0.1481
     38 C          68.4220   92.3014   14.0025 C.ar    1  UNL1        0.1480
     39 N          69.9113   92.1539   14.1037 N.pl3   1  UNL1       -0.3413
     40 N          67.5967   92.4488   15.2463 N.ar    1  UNL1       -0.2078
     41 C          66.1074   92.5962   15.1450 C.ar    1  UNL1        0.2015
     42 N          65.4434   92.5962   13.8000 N.ar    1  UNL1       -0.2048
     43 C          66.2688   92.4488   12.5562 C.ar    1  UNL1        0.1674
     44 H          70.4530   92.0572   13.2874 H       1  UNL1        0.1438
     45 H          70.3471   92.1539   14.9865 H       1  UNL1        0.1438
@<TRIPOS>BOND
     1    32    31    1
     2    32    33    1
     3    33    34    1
     4    34    35   ar
     5    35    36   ar
     6    36    37   ar
     7    37    38   ar
     8    38    39    1
     9    38    40   ar
    10    40    41   ar
    11    41    42   ar
    12    42    43   ar
    13    32    30    1
    14    30    29    1
    15    29    25    1
    16    25    26    2
    17    25    27    1
    18    25    24    1
    19    24     1    1
    20     1     2    1
    21     2     3    1
    22     3     4    1
    23     4     5    1
    24     5     6    1
    25     6     7    1
    26     7     8    1
    27     8     9    1
    28     9    10    1
    29    10    11    1
    30    11    12    1
    31    12    13    1
    32    13    14    1
    33    14    15    1
    34    15    16    1
    35    16    17    1
    36    17    18    1
    37    18    19    1
    38    19    20    1
    39    20    21    1
    40    20    22    1
    41    20    23    1
    42    43    34   ar
    43    43    37   ar
    44    39    44    1
    45    39    45    1
    46    27    28    1
@<TRIPOS>MOLECULE
*****
 45 46 0 0 0
SMALL
GASTEIGER

@<TRIPOS>ATOM
      1 C          63.7874   88.4816   14.0757 C.3     1  UNL1        0.1514
      2 C          63.9121   87.0073   13.8288 C.3     1  UNL1        0.0326
      3 C          64.4974   86.1169   14.8846 C.3     1  UNL1        0.0026
      4 C          65.2334   84.8706   14.4910 C.3     1  UNL1        0.0001
      5 C          64.5498   83.5380   14.5742 C.3     1  UNL1        0.0000
      6 C          63.1500   83.4449   15.1051 C.3     1  UNL1        0.0000
      7 C          62.0897   82.7464   14.3062 C.3     1  UNL1        0.0000
      8 C          62.1666   81.2638   14.0922 C.3     1  UNL1        0.0000
      9 C          62.7901   80.7177   12.8420 C.3     1  UNL1        0.0000
     10 C          62.8115   81.5454   11.5913 C.3     1  UNL1        0.0000
     11 C          64.0468   82.3109   11.2196 C.3     1  UNL1        0.0000
     12 C          63.9283   83.6822   10.6234 C.3     1  UNL1        0.0000
     13 C          63.0632   84.7147   11.2832 C.3     1  UNL1        0.0000
     14 C          61.8865   85.2870   10.5498 C.3     1  UNL1        0.0000
     15 C          62.0601   85.8334    9.1637 C.3     1  UNL1        0.0000
     16 C          60.8672   86.3162    8.3930 C.3     1  UNL1        0.0000
     17 C          59.9006   87.2715    9.0278 C.3     1  UNL1        0.0003
     18 C          60.1198   88.7506    8.9079 C.3     1  UNL1        0.0088
     19 C          61.3119   89.3873    9.5587 C.3     1  UNL1        0.1033
     20 C          61.3078   89.6531   11.0349 C.3     1  UNL1        0.3978
     21 F          61.3037   89.9188   12.5112 F       1  UNL1       -0.1700
     22 F          59.9026   90.1687   10.9382 F       1  UNL1       -0.1700
     23 F          62.7131   89.1374   11.1316 F       1  UNL1       -0.1700
     24 O          64.3681   89.0854   15.3199 O.3     1  UNL1       -0.2926
     25 P          63.8641   90.4076   15.8176 P.3     1  UNL1        0.3697
     26 O          62.9808   89.7002   16.8022 O.2     1  UNL1       -0.2553
     27 O          63.3600   91.7298   16.3154 O.3     1  UNL1       -0.3218
     28 H          62.7129   91.5834   17.0230 H       1  UNL1        0.2198
     29 C          64.7473   91.1150   14.8331 C.3     1  UNL1        0.2579
     30 O          66.2388   91.0064   14.9502 O.3     1  UNL1       -0.3426
     31 C          68.3599   92.2921   15.7234 C.3     1  UNL1        0.0342
     32 C          67.0846   92.2450   14.9351 C.3     1  UNL1        0.1387
     33 C          66.6550   93.4368   14.1316 C.3     1  UNL1        0.1384
     34 N          66.8434   93.4454   12.6435 N.ar    1  UNL1       -0.2918
     35 C          67.4181   92.3305   11.8211 C.ar    1  UNL1        0.1798
     36 N          67.4200   92.7666   10.3859 N.ar    1  UNL1       -0.2195
     37 C          66.8464   94.1511   10.3213 C.ar    1  UNL1        0.1481
     38 C          66.6025   95.0839    9.1723 C.ar    1  UNL1        0.1480
     39 N          66.9589   94.6643    7.7770 N.pl3   1  UNL1       -0.3413
     40 N          66.0023   96.4363    9.4186 N.ar    1  UNL1       -0.2078
     41 C          65.6459   96.8559   10.8139 C.ar    1  UNL1        0.2015
     42 N          65.8898   95.9230   11.9630 N.ar    1  UNL1       -0.2048
     43 C          66.4900   94.5706   11.7167 C.ar    1  UNL1        0.1674
     44 H          67.3529   93.7767    7.6153 H       1  UNL1        0.1438
     45 H          66.7988   95.2766    7.0228 H       1  UNL1        0.1438
@<TRIPOS>BOND
     1    32    31    1
     2    32    33    1
     3    33    34    1
     4    34    35   ar
     5    35    36   ar
     6    36    37   ar
     7    37    38   ar
     8    38    39    1
     9    38    40   ar
    10    40    41   ar
    11    41    42   ar
    12    42    43   ar
    13    32    30    1
    14    30    29    1
    15    29    25    1
    16    25    26    2
    17    25    27    1
    18    25    24    1
    19    24     1    1
    20     1     2    1
    21     2     3    1
    22     3     4    1
    23     4     5    1
    24     5     6    1
    25     6     7    1
    26     7     8    1
    27     8     9    1
    28     9    10    1
    29    10    11    1
    30    11    12    1
    31    12    13    1
    32    13    14    1
    33    14    15    1
    34    15    16    1
    35    16    17    1
    36    17    18    1
    37    18    19    1
    38    19    20    1
    39    20    21    1
    40    20    22    1
    41    20    23    1
    42    43    34   ar
    43    43    37   ar
    44    39    44    1
    45    39    45    1
    46    27    28    1
@<TRIPOS>MOLECULE
*****
 45 46 0 0 0
SMALL
GASTEIGER

@<TRIPOS>ATOM
      1 C          63.7936   88.2122   13.5105 C.3     1  UNL1        0.1514
      2 C          63.8368   86.7131   13.4869 C.3     1  UNL1        0.0326
      3 C          64.3700   85.9595   14.6692 C.3     1  UNL1        0.0026
      4 C          65.1057   84.6682   14.4659 C.3     1  UNL1        0.0001
      5 C          64.3925   83.3616   14.6500 C.3     1  UNL1        0.0000
      6 C          62.9560   83.3454   15.0816 C.3     1  UNL1        0.0000
      7 C          61.9366   82.6049   14.2676 C.3     1  UNL1        0.0000
      8 C          62.0551   81.1204   14.0876 C.3     1  UNL1        0.0000
      9 C          62.6887   80.5635   12.8474 C.3     1  UNL1        0.0000
     10 C          62.7144   81.3775   11.5878 C.3     1  UNL1        0.0000
     11 C          64.0131   81.9265   11.0759 C.3     1  UNL1        0.0000
     12 C          64.0956   83.3520   10.6163 C.3     1  UNL1        0.0000
     13 C          63.2257   84.3962   11.2510 C.3     1  UNL1        0.0000
     14 C          62.2470   85.1664   10.4149 C.3     1  UNL1        0.0000
     15 C          62.5965   85.5407    9.0051 C.3     1  UNL1        0.0000
     16 C          61.5144   85.9326    8.0430 C.3     1  UNL1        0.0000
     17 C          60.1704   86.3554    8.5574 C.3     1  UNL1        0.0003
     18 C          59.9057   87.7992    8.8661 C.3     1  UNL1        0.0088
     19 C          60.4366   88.4053   10.1314 C.3     1  UNL1        0.1033
     20 C          61.4198   89.5363   10.0662 C.3     1  UNL1        0.3978
     21 F          62.4029   90.6673   10.0011 F       1  UNL1       -0.1700
     22 F          60.3069   90.4844    9.7308 F       1  UNL1       -0.1700
     23 F          62.5327   88.5881   10.4017 F       1  UNL1       -0.1700
     24 O          64.5435   88.9677   14.5672 O.3     1  UNL1       -0.2926
     25 P          64.0387   90.2994   15.0381 P.3     1  UNL1        0.3697
     26 O          63.2683   89.6207   16.1316 O.2     1  UNL1       -0.2553
     27 O          63.5338   91.6311   15.5090 O.3     1  UNL1       -0.3218
     28 H          62.9553   91.5043   16.2772 H       1  UNL1        0.2198
     29 C          64.8091   90.9781   13.9446 C.3     1  UNL1        0.2579
     30 O          66.3053   91.0550   14.0176 O.3     1  UNL1       -0.3426
     31 C          68.4056   92.4591   14.6238 C.3     1  UNL1        0.0342
     32 C          66.9820   92.3864   14.1566 C.3     1  UNL1        0.1387
     33 C          66.2352   93.6453   13.8283 C.3     1  UNL1        0.1384
     34 N          66.4774   94.3421   12.5223 N.ar    1  UNL1       -0.2918
     35 C          66.1729   95.7794   12.2200 C.ar    1  UNL1        0.1798
     36 N          66.5739   96.0495   10.8001 N.ar    1  UNL1       -0.2195
     37 C          67.1264   94.7791   10.2248 C.ar    1  UNL1        0.1481
     38 C          67.6760   94.4469    8.8693 C.ar    1  UNL1        0.1480
     39 N          67.7357   95.5022    7.8049 N.pl3   1  UNL1       -0.3413
     40 N          68.1660   93.0595    8.5781 N.ar    1  UNL1       -0.2078
     41 C          68.1064   92.0042    9.6425 C.ar    1  UNL1        0.2015
     42 N          67.5568   92.3364   10.9980 N.ar    1  UNL1       -0.2048
     43 C          67.0668   93.7239   11.2892 C.ar    1  UNL1        0.1674
     44 H          67.4141   96.4128    7.9960 H       1  UNL1        0.1438
     45 H          68.0964   95.2841    6.9152 H       1  UNL1        0.1438
@<TRIPOS>BOND
     1    32    31    1
     2    32    33    1
     3    33    34    1
     4    34    35   ar
     5    35    36   ar
     6    36    37   ar
     7    37    38   ar
     8    38    39    1
     9    38    40   ar
    10    40    41   ar
    11    41    42   ar
    12    42    43   ar
    13    32    30    1
    14    30    29    1
    15    29    25    1
    16    25    26    2
    17    25    27    1
    18    25    24    1
    19    24     1    1
    20     1     2    1
    21     2     3    1
    22     3     4    1
    23     4     5    1
    24     5     6    1
    25     6     7    1
    26     7     8    1
    27     8     9    1
    28     9    10    1
    29    10    11    1
    30    11    12    1
    31    12    13    1
    32    13    14    1
    33    14    15    1
    34    15    16    1
    35    16    17    1
    36    17    18    1
    37    18    19    1
    38    19    20    1
    39    20    21    1
    40    20    22    1
    41    20    23    1
    42    43    34   ar
    43    43    37   ar
    44    39    44    1
    45    39    45    1
    46    27    28    1
@<TRIPOS>MOLECULE
*****
 45 46 0 0 0
SMALL
GASTEIGER

@<TRIPOS>ATOM
      1 C          65.8511   92.0413   15.5898 C.3     1  UNL1        0.1514
      2 C          66.9646   92.9343   15.1288 C.3     1  UNL1        0.0326
      3 C          67.2031   93.1395   13.6622 C.3     1  UNL1        0.0026
      4 C          66.1842   93.8603   12.8302 C.3     1  UNL1        0.0001
      5 C          66.0348   93.5301   11.3747 C.3     1  UNL1        0.0000
      6 C          65.5052   92.1894   10.9603 C.3     1  UNL1        0.0000
      7 C          64.1188   91.7755   11.3564 C.3     1  UNL1        0.0000
      8 C          63.1190   91.3986   10.3037 C.3     1  UNL1        0.0000
      9 C          62.7470   89.9593   10.1036 C.3     1  UNL1        0.0000
     10 C          62.2710   89.1391   11.2658 C.3     1  UNL1        0.0000
     11 C          62.4762   87.6532   11.2691 C.3     1  UNL1        0.0000
     12 C          61.4413   86.7519   10.6635 C.3     1  UNL1        0.0000
     13 C          61.8106   85.8408    9.5306 C.3     1  UNL1        0.0000
     14 C          61.3972   86.1807    8.1294 C.3     1  UNL1        0.0000
     15 C          59.9598   86.0536    7.7198 C.3     1  UNL1        0.0000
     16 C          59.0189   87.2049    7.9179 C.3     1  UNL1        0.0000
     17 C          59.5487   88.6075    7.9624 C.3     1  UNL1        0.0003
     18 C          59.7857   89.3605    6.6869 C.3     1  UNL1        0.0088
     19 C          58.6652   90.1274    6.0494 C.3     1  UNL1        0.1033
     20 C          58.9671   91.3047    5.1703 C.3     1  UNL1        0.3978
     21 F          59.2690   92.4820    4.2911 F       1  UNL1       -0.1700
     22 F          57.5385   91.7498    5.2758 F       1  UNL1       -0.1700
     23 F          60.3957   90.8595    5.0648 F       1  UNL1       -0.1700
     24 O          65.3027   90.9907   14.6704 O.3     1  UNL1       -0.2926
     25 P          63.9829   90.3448   14.9719 P.3     1  UNL1        0.3697
     26 O          63.5017   91.6202   15.5977 O.2     1  UNL1       -0.2553
     27 O          62.6631   89.6989   15.2735 O.3     1  UNL1       -0.3218
     28 H          62.0852   90.3373   15.7201 H       1  UNL1        0.2198
     29 C          64.4641   89.0693   14.3461 C.3     1  UNL1        0.2579
     30 O          63.5848   87.8541   14.3491 O.3     1  UNL1       -0.3426
     31 C          63.5959   86.5017   16.5675 C.3     1  UNL1        0.0342
     32 C          63.9902   86.6370   15.1265 C.3     1  UNL1        0.1387
     33 C          64.7899   85.5551   14.4630 C.3     1  UNL1        0.1384
     34 N          64.2008   84.1866   14.2887 N.ar    1  UNL1       -0.2918
     35 C          63.6889   83.3009   15.3857 C.ar    1  UNL1        0.1798
     36 N          63.1919   82.0305   14.7618 N.ar    1  UNL1       -0.2195
     37 C          63.3967   82.1312   13.2792 C.ar    1  UNL1        0.1481
     38 C          63.0960   81.1816   12.1577 C.ar    1  UNL1        0.1480
     39 N          62.4724   79.8490   12.4501 N.pl3   1  UNL1       -0.3413
     40 N          63.4187   81.5646   10.7439 N.ar    1  UNL1       -0.2078
     41 C          64.0423   82.8971   10.4515 C.ar    1  UNL1        0.2015
     42 N          64.3430   83.8467   11.5730 N.ar    1  UNL1       -0.2048
     43 C          64.0202   83.4637   12.9868 C.ar    1  UNL1        0.1674
     44 H          62.2606   79.5977   13.3781 H       1  UNL1        0.1438
     45 H          62.2750   79.2258   11.7140 H       1  UNL1        0.1438
@<TRIPOS>BOND
     1    32    31    1
     2    32    33    1
     3    33    34    1
     4    34    35   ar
     5    35    36   ar
     6    36    37   ar
     7    37    38   ar
     8    38    39    1
     9    38    40   ar
    10    40    41   ar
    11    41    42   ar
    12    42    43   ar
    13    32    30    1
    14    30    29    1
    15    29    25    1
    16    25    26    2
    17    25    27    1
    18    25    24    1
    19    24     1    1
    20     1     2    1
    21     2     3    1
    22     3     4    1
    23     4     5    1
    24     5     6    1
    25     6     7    1
    26     7     8    1
    27     8     9    1
    28     9    10    1
    29    10    11    1
    30    11    12    1
    31    12    13    1
    32    13    14    1
    33    14    15    1
    34    15    16    1
    35    16    17    1
    36    17    18    1
    37    18    19    1
    38    19    20    1
    39    20    21    1
    40    20    22    1
    41    20    23    1
    42    43    34   ar
    43    43    37   ar
    44    39    44    1
    45    39    45    1
    46    27    28    1
@<TRIPOS>MOLECULE
*****
 45 46 0 0 0
SMALL
GASTEIGER

@<TRIPOS>ATOM
      1 C          62.2058   85.1539   12.9015 C.3     1  UNL1        0.1514
      2 C          61.7127   85.5023   11.5284 C.3     1  UNL1        0.0326
      3 C          61.3379   86.9178   11.2029 C.3     1  UNL1        0.0026
      4 C          62.4068   87.9560   11.0311 C.3     1  UNL1        0.0001
      5 C          62.2520   89.0272    9.9926 C.3     1  UNL1        0.0000
      6 C          60.9035   89.6303    9.7323 C.3     1  UNL1        0.0000
      7 C          60.1251   89.2295    8.5142 C.3     1  UNL1        0.0000
      8 C          59.2102   88.0420    8.5659 C.3     1  UNL1        0.0000
      9 C          59.3110   86.9713    7.5203 C.3     1  UNL1        0.0000
     10 C          60.0871   85.7189    7.8014 C.3     1  UNL1        0.0000
     11 C          61.4165   85.4967    7.1431 C.3     1  UNL1        0.0000
     12 C          62.6735   85.5313    7.9608 C.3     1  UNL1        0.0000
     13 C          63.2483   84.2579    8.5069 C.3     1  UNL1        0.0000
     14 C          63.9147   84.2515    9.8506 C.3     1  UNL1        0.0000
     15 C          64.5650   82.9992   10.3593 C.3     1  UNL1        0.0000
     16 C          63.7568   81.7455   10.5177 C.3     1  UNL1        0.0000
     17 C          62.7769   81.6225   11.6466 C.3     1  UNL1        0.0003
     18 C          62.8256   80.4302   12.5555 C.3     1  UNL1        0.0088
     19 C          62.2548   80.5187   13.9399 C.3     1  UNL1        0.1033
     20 C          60.7758   80.6781   14.1326 C.3     1  UNL1        0.3978
     21 F          59.2968   80.8374   14.3254 F       1  UNL1       -0.1700
     22 F          60.5759   79.2302   13.7954 F       1  UNL1       -0.1700
     23 F          60.9758   82.1260   14.4699 F       1  UNL1       -0.1700
     24 O          63.5082   85.7111   13.3945 O.3     1  UNL1       -0.2926
     25 P          64.0580   85.2728   14.7195 P.3     1  UNL1        0.3697
     26 O          63.4638   83.9107   14.5155 O.2     1  UNL1       -0.2553
     27 O          64.6077   84.8345   16.0446 O.3     1  UNL1       -0.3218
     28 H          64.3639   83.9096   16.2058 H       1  UNL1        0.2198
     29 C          64.6522   86.6349   14.9235 C.3     1  UNL1        0.2579
     30 O          63.8290   87.8600   14.6563 O.3     1  UNL1       -0.3426
     31 C          63.0286   88.1650   17.1091 C.3     1  UNL1        0.0342
     32 C          63.4288   88.7568   15.7901 C.3     1  UNL1        0.1387
     33 C          63.4288   90.2454   15.6050 C.3     1  UNL1        0.1384
     34 N          64.0683   90.8501   14.3903 N.ar    1  UNL1       -0.2918
     35 C          63.4525   90.9480   13.0261 C.ar    1  UNL1        0.1798
     36 N          64.4395   91.6215   12.1193 N.ar    1  UNL1       -0.2195
     37 C          65.6653   91.9398   12.9231 C.ar    1  UNL1        0.1481
     38 C          66.9607   92.6022   12.5584 C.ar    1  UNL1        0.1480
     39 N          67.1901   93.0789   11.1548 N.pl3   1  UNL1       -0.3413
     40 N          68.0266   92.7878   13.5972 N.ar    1  UNL1       -0.2078
     41 C          67.7972   92.3111   15.0008 C.ar    1  UNL1        0.2015
     42 N          66.5018   91.6487   15.3655 N.ar    1  UNL1       -0.2048
     43 C          65.4358   91.4631   14.3267 C.ar    1  UNL1        0.1674
     44 H          66.4904   92.9571   10.4729 H       1  UNL1        0.1438
     45 H          68.0403   93.5137   10.9153 H       1  UNL1        0.1438
@<TRIPOS>BOND
     1    32    31    1
     2    32    33    1
     3    33    34    1
     4    34    35   ar
     5    35    36   ar
     6    36    37   ar
     7    37    38   ar
     8    38    39    1
     9    38    40   ar
    10    40    41   ar
    11    41    42   ar
    12    42    43   ar
    13    32    30    1
    14    30    29    1
    15    29    25    1
    16    25    26    2
    17    25    27    1
    18    25    24    1
    19    24     1    1
    20     1     2    1
    21     2     3    1
    22     3     4    1
    23     4     5    1
    24     5     6    1
    25     6     7    1
    26     7     8    1
    27     8     9    1
    28     9    10    1
    29    10    11    1
    30    11    12    1
    31    12    13    1
    32    13    14    1
    33    14    15    1
    34    15    16    1
    35    16    17    1
    36    17    18    1
    37    18    19    1
    38    19    20    1
    39    20    21    1
    40    20    22    1
    41    20    23    1
    42    43    34   ar
    43    43    37   ar
    44    39    44    1
    45    39    45    1
    46    27    28    1
