@<TRIPOS>MOLECULE
*****
 17 17 0 0 0
SMALL
GASTEIGER

@<TRIPOS>ATOM
      1 C          66.2418   92.9492   12.3155 C.ar    1  UNL1        0.1754
      2 C          64.9734   92.3706   11.7621 C.ar    1  UNL1        0.0770
      3 C          64.2498   91.2933   12.5142 C.ar    1  UNL1        0.1451
      4 C          64.7945   90.7946   13.8197 C.ar    1  UNL1        0.0790
      5 C          66.0629   91.3732   14.3731 C.ar    1  UNL1        0.0464
      6 C          66.7865   92.4505   13.6210 C.ar    1  UNL1        0.1727
      7 C          66.2758   95.3243   11.2630 C.3     1  UNL1        0.2526
      8 O          66.9654   94.0266   11.5633 O.3     1  UNL1       -0.4683
      9 O          62.9813   90.7146   11.9607 O.3     1  UNL1       -0.4712
     10 C          62.6736   90.8437   10.4983 C.3     1  UNL1        0.2525
     11 C          64.0709   89.7172   14.5719 C.2     1  UNL1        0.2330
     12 O          63.9226   88.3517   13.9690 O.2     1  UNL1       -0.2834
     13 C          63.4956   90.0053   15.9268 C.2     1  UNL1        0.2122
     14 C          63.0981   88.8746   16.8288 C.3     1  UNL1        0.0808
     15 O          63.3177   91.4242   16.3799 O.2     1  UNL1       -0.2879
     16 O          68.0550   93.0292   14.1745 O.3     1  UNL1       -0.4684
     17 C          68.1389   93.4020   15.6250 C.3     1  UNL1        0.2526
@<TRIPOS>BOND
     1     7     8    1
     2     8     1    1
     3     1     2   ar
     4     2     3   ar
     5     3     9    1
     6     9    10    1
     7     3     4   ar
     8     4    11    1
     9    11    12    2
    10    11    13    1
    11    13    14    1
    12    13    15    2
    13     4     5   ar
    14     5     6   ar
    15     6    16    1
    16    16    17    1
    17     6     1   ar
@<TRIPOS>MOLECULE
*****
 17 17 0 0 0
SMALL
GASTEIGER

@<TRIPOS>ATOM
      1 C          63.3010   89.9453   12.8192 C.ar    1  UNL1        0.1754
      2 C          63.7401   91.0104   11.8586 C.ar    1  UNL1        0.0770
      3 C          64.8327   91.9633   12.2434 C.ar    1  UNL1        0.1451
      4 C          65.4862   91.8513   13.5888 C.ar    1  UNL1        0.0790
      5 C          65.0471   90.7862   14.5495 C.ar    1  UNL1        0.0464
      6 C          63.9545   89.8333   14.1646 C.ar    1  UNL1        0.1727
      7 C          62.2979   88.2296   11.1459 C.3     1  UNL1        0.2526
      8 O          62.2084   88.9924   12.4344 O.3     1  UNL1       -0.4683
      9 O          65.2718   93.0284   11.2827 O.3     1  UNL1       -0.4712
     10 C          66.4769   92.8074   10.4174 C.3     1  UNL1        0.2525
     11 C          66.5788   92.8042   13.9737 C.2     1  UNL1        0.2330
     12 O          66.2774   94.2645   14.1365 O.2     1  UNL1       -0.2834
     13 C          67.9728   92.2969   14.1956 C.2     1  UNL1        0.2122
     14 C          68.5799   92.3471   15.5664 C.3     1  UNL1        0.0808
     15 O          68.7598   91.7392   13.0468 O.2     1  UNL1       -0.2879
     16 O          63.5155   88.7682   15.1254 O.3     1  UNL1       -0.4684
     17 C          63.1230   89.1366   16.5254 C.3     1  UNL1        0.2526
@<TRIPOS>BOND
     1     7     8    1
     2     8     1    1
     3     1     2   ar
     4     2     3   ar
     5     3     9    1
     6     9    10    1
     7     3     4   ar
     8     4    11    1
     9    11    12    2
    10    11    13    1
    11    13    14    1
    12    13    15    2
    13     4     5   ar
    14     5     6   ar
    15     6    16    1
    16    16    17    1
    17     6     1   ar
@<TRIPOS>MOLECULE
*****
 17 17 0 0 0
SMALL
GASTEIGER

@<TRIPOS>ATOM
      1 C          66.4780   92.5767   11.9491 C.ar    1  UNL1        0.1754
      2 C          67.0934   92.5259   13.3161 C.ar    1  UNL1        0.0770
      3 C          66.2998   92.0042   14.4770 C.ar    1  UNL1        0.1451
      4 C          64.8906   91.5332   14.2711 C.ar    1  UNL1        0.0790
      5 C          64.2751   91.5840   12.9042 C.ar    1  UNL1        0.0464
      6 C          65.0688   92.1058   11.7432 C.ar    1  UNL1        0.1727
      7 C          68.0175   92.1462    9.9011 C.3     1  UNL1        0.2526
      8 O          67.2716   93.0984   10.7881 O.3     1  UNL1       -0.4683
      9 O          66.9153   91.9534   15.8440 O.3     1  UNL1       -0.4712
     10 C          68.3193   92.4384   16.0529 C.3     1  UNL1        0.2525
     11 C          64.0970   91.0115   15.4321 C.2     1  UNL1        0.2330
     12 O          63.8199   91.8978   16.6100 O.2     1  UNL1       -0.2834
     13 C          63.5803   89.6034   15.4151 C.2     1  UNL1        0.2122
     14 C          64.3537   88.5292   14.7095 C.3     1  UNL1        0.0808
     15 O          62.2902   89.2695   16.1038 O.2     1  UNL1       -0.2879
     16 O          64.4532   92.1565   10.3762 O.3     1  UNL1       -0.4684
     17 C          63.2225   91.3528   10.0776 C.3     1  UNL1        0.2526
@<TRIPOS>BOND
     1     7     8    1
     2     8     1    1
     3     1     2   ar
     4     2     3   ar
     5     3     9    1
     6     9    10    1
     7     3     4   ar
     8     4    11    1
     9    11    12    2
    10    11    13    1
    11    13    14    1
    12    13    15    2
    13     4     5   ar
    14     5     6   ar
    15     6    16    1
    16    16    17    1
    17     6     1   ar
@<TRIPOS>MOLECULE
*****
 17 17 0 0 0
SMALL
GASTEIGER

@<TRIPOS>ATOM
      1 C          64.5148   90.5408   13.8937 C.ar    1  UNL1        0.1754
      2 C          65.7755   91.2247   14.3327 C.ar    1  UNL1        0.0770
      3 C          66.3908   92.2880   13.4720 C.ar    1  UNL1        0.1451
      4 C          65.7453   92.6674   12.1722 C.ar    1  UNL1        0.0790
      5 C          64.4846   91.9834   11.7332 C.ar    1  UNL1        0.0464
      6 C          63.8694   90.9201   12.5940 C.ar    1  UNL1        0.1727
      7 C          64.3886   88.0625   14.6631 C.3     1  UNL1        0.2526
      8 O          63.8996   89.4775   14.7545 O.3     1  UNL1       -0.4683
      9 O          67.6516   92.9720   13.9111 O.3     1  UNL1       -0.4712
     10 C          67.8202   93.3871   15.3425 C.3     1  UNL1        0.2525
     11 C          66.3606   93.7306   11.3115 C.2     1  UNL1        0.2330
     12 O          66.1915   95.1772   11.6705 O.2     1  UNL1       -0.2834
     13 C          67.1449   93.3474   10.0917 C.2     1  UNL1        0.2122
     14 C          67.9674   92.0930   10.0924 C.3     1  UNL1        0.0808
     15 O          67.1068   94.2186    8.8712 O.2     1  UNL1       -0.2879
     16 O          62.6086   90.2362   12.1549 O.3     1  UNL1       -0.4684
     17 C          62.6788   88.9124   11.4531 C.3     1  UNL1        0.2526
@<TRIPOS>BOND
     1     7     8    1
     2     8     1    1
     3     1     2   ar
     4     2     3   ar
     5     3     9    1
     6     9    10    1
     7     3     4   ar
     8     4    11    1
     9    11    12    2
    10    11    13    1
    11    13    14    1
    12    13    15    2
    13     4     5   ar
    14     5     6   ar
    15     6    16    1
    16    16    17    1
    17     6     1   ar
@<TRIPOS>MOLECULE
*****
 17 17 0 0 0
SMALL
GASTEIGER

@<TRIPOS>ATOM
      1 C          65.7247   92.1864   13.9824 C.ar    1  UNL1        0.1754
      2 C          64.8065   91.3261   14.7989 C.ar    1  UNL1        0.0770
      3 C          63.6909   90.5768   14.1326 C.ar    1  UNL1        0.1451
      4 C          63.4934   90.6878   12.6499 C.ar    1  UNL1        0.0790
      5 C          64.4116   91.5482   11.8334 C.ar    1  UNL1        0.0464
      6 C          65.5272   92.2975   12.4996 C.ar    1  UNL1        0.1727
      7 C          67.0981   92.7499   16.1145 C.3     1  UNL1        0.2526
      8 O          66.8404   92.9357   14.6486 O.3     1  UNL1       -0.4683
      9 O          62.7727   89.7164   14.9492 O.3     1  UNL1       -0.4712
     10 C          63.1172   89.3921   16.3726 C.3     1  UNL1        0.2525
     11 C          62.3778   89.9385   11.9836 C.2     1  UNL1        0.2330
     12 O          61.0502   90.6034   11.7704 O.2     1  UNL1       -0.2834
     13 C          62.5897   88.5244   11.5306 C.2     1  UNL1        0.2122
     14 C          62.1903   88.1131   10.1445 C.3     1  UNL1        0.0808
     15 O          63.2011   87.5215   12.4637 O.2     1  UNL1       -0.2879
     16 O          66.4455   93.1578   11.6830 O.3     1  UNL1       -0.4684
     17 C          65.8780   94.1307   10.6923 C.3     1  UNL1        0.2526
@<TRIPOS>BOND
     1     7     8    1
     2     8     1    1
     3     1     2   ar
     4     2     3   ar
     5     3     9    1
     6     9    10    1
     7     3     4   ar
     8     4    11    1
     9    11    12    2
    10    11    13    1
    11    13    14    1
    12    13    15    2
    13     4     5   ar
    14     5     6   ar
    15     6    16    1
    16    16    17    1
    17     6     1   ar
@<TRIPOS>MOLECULE
*****
 17 17 0 0 0
SMALL
GASTEIGER

@<TRIPOS>ATOM
      1 C          64.8633   92.2234   11.6179 C.ar    1  UNL1        0.1754
      2 C          65.7059   92.2390   12.8587 C.ar    1  UNL1        0.0770
      3 C          65.4649   91.2296   13.9418 C.ar    1  UNL1        0.1451
      4 C          64.3813   90.2046   13.7840 C.ar    1  UNL1        0.0790
      5 C          63.5386   90.1889   12.5432 C.ar    1  UNL1        0.0464
      6 C          63.7796   91.1983   11.4602 C.ar    1  UNL1        0.1727
      7 C          66.0307   94.3871   10.7781 C.3     1  UNL1        0.2526
      8 O          65.1042   93.2328   10.5349 O.3     1  UNL1       -0.4683
      9 O          66.3076   91.2453   15.1826 O.3     1  UNL1       -0.4712
     10 C          67.6336   91.9465   15.1799 C.3     1  UNL1        0.2525
     11 C          64.1403   89.1952   14.8671 C.2     1  UNL1        0.2330
     12 O          64.5818   87.7740   14.6795 O.2     1  UNL1       -0.2834
     13 C          63.4579   89.6069   16.1378 C.2     1  UNL1        0.2122
     14 C          62.9971   88.5649   17.1134 C.3     1  UNL1        0.0808
     15 O          63.2362   91.0609   16.4329 O.2     1  UNL1       -0.2879
     16 O          62.9369   91.1826   10.2193 O.3     1  UNL1       -0.4684
     17 C          61.7814   90.2325   10.1095 C.3     1  UNL1        0.2526
@<TRIPOS>BOND
     1     7     8    1
     2     8     1    1
     3     1     2   ar
     4     2     3   ar
     5     3     9    1
     6     9    10    1
     7     3     4   ar
     8     4    11    1
     9    11    12    2
    10    11    13    1
    11    13    14    1
    12    13    15    2
    13     4     5   ar
    14     5     6   ar
    15     6    16    1
    16    16    17    1
    17     6     1   ar
@<TRIPOS>MOLECULE
*****
 17 17 0 0 0
SMALL
GASTEIGER

@<TRIPOS>ATOM
      1 C          63.3702   88.8759   12.5024 C.ar    1  UNL1        0.1754
      2 C          63.5904   90.2952   12.0696 C.ar    1  UNL1        0.0770
      3 C          64.3897   91.2267   12.9318 C.ar    1  UNL1        0.1451
      4 C          64.9687   90.7391   14.2267 C.ar    1  UNL1        0.0790
      5 C          64.7485   89.3199   14.6595 C.ar    1  UNL1        0.0464
      6 C          63.9493   88.3883   13.7973 C.ar    1  UNL1        0.1727
      7 C          62.1099   88.3879   10.2835 C.3     1  UNL1        0.2526
      8 O          62.5710   87.9444   11.6402 O.3     1  UNL1       -0.4683
      9 O          64.6099   92.6460   12.4990 O.3     1  UNL1       -0.4712
     10 C          65.3804   92.9369   11.2453 C.3     1  UNL1        0.2525
     11 C          65.7679   91.6707   15.0889 C.2     1  UNL1        0.2330
     12 O          65.0941   92.4426   16.1843 O.2     1  UNL1       -0.2834
     13 C          67.2410   91.8304   14.8556 C.2     1  UNL1        0.2122
     14 C          68.1487   92.1735   15.9995 C.3     1  UNL1        0.0808
     15 O          67.8066   91.6470   13.4784 O.2     1  UNL1       -0.2879
     16 O          63.7291   86.9691   14.2301 O.3     1  UNL1       -0.4684
     17 C          64.1783   86.5212   15.5894 C.3     1  UNL1        0.2526
@<TRIPOS>BOND
     1     7     8    1
     2     8     1    1
     3     1     2   ar
     4     2     3   ar
     5     3     9    1
     6     9    10    1
     7     3     4   ar
     8     4    11    1
     9    11    12    2
    10    11    13    1
    11    13    14    1
    12    13    15    2
    13     4     5   ar
    14     5     6   ar
    15     6    16    1
    16    16    17    1
    17     6     1   ar
@<TRIPOS>MOLECULE
*****
 17 17 0 0 0
SMALL
GASTEIGER

@<TRIPOS>ATOM
      1 C          63.0286   84.9219    9.4345 C.ar    1  UNL1        0.1754
      2 C          63.5952   83.6550   10.0036 C.ar    1  UNL1        0.0770
      3 C          63.4974   83.3845   11.4758 C.ar    1  UNL1        0.1451
      4 C          62.8330   84.3810   12.3789 C.ar    1  UNL1        0.0790
      5 C          62.2664   85.6478   11.8098 C.ar    1  UNL1        0.0464
      6 C          62.3642   85.9183   10.3376 C.ar    1  UNL1        0.1727
      7 C          61.9662   84.8815    7.0640 C.3     1  UNL1        0.2526
      8 O          63.1264   85.1924    7.9624 O.3     1  UNL1       -0.4683
      9 O          64.0641   82.1176   12.0448 O.3     1  UNL1       -0.4712
     10 C          63.2267   80.8738   12.0864 C.3     1  UNL1        0.2525
     11 C          62.7352   84.1105   13.8511 C.2     1  UNL1        0.2330
     12 O          61.9028   82.9667   14.3498 O.2     1  UNL1       -0.2834
     13 C          63.4698   84.9838   14.8245 C.2     1  UNL1        0.2122
     14 C          64.9258   85.2785   14.6170 C.3     1  UNL1        0.0808
     15 O          62.7483   85.5625   16.0055 O.2     1  UNL1       -0.2879
     16 O          61.7975   87.1853    9.7686 O.3     1  UNL1       -0.4684
     17 C          60.3324   87.2798    9.4611 C.3     1  UNL1        0.2526
@<TRIPOS>BOND
     1     7     8    1
     2     8     1    1
     3     1     2   ar
     4     2     3   ar
     5     3     9    1
     6     9    10    1
     7     3     4   ar
     8     4    11    1
     9    11    12    2
    10    11    13    1
    11    13    14    1
    12    13    15    2
    13     4     5   ar
    14     5     6   ar
    15     6    16    1
    16    16    17    1
    17     6     1   ar
@<TRIPOS>MOLECULE
*****
 17 17 0 0 0
SMALL
GASTEIGER

@<TRIPOS>ATOM
      1 C          62.4111   85.6718    9.9031 C.ar    1  UNL1        0.1754
      2 C          63.1086   84.3553    9.7294 C.ar    1  UNL1        0.0770
      3 C          63.6143   83.6105   10.9292 C.ar    1  UNL1        0.1451
      4 C          63.4224   84.1821   12.3027 C.ar    1  UNL1        0.0790
      5 C          62.7249   85.4986   12.4763 C.ar    1  UNL1        0.0464
      6 C          62.2192   86.2434   11.2765 C.ar    1  UNL1        0.1727
      7 C          60.4622   86.3110    8.3083 C.3     1  UNL1        0.2526
      8 O          61.9054   86.4167    8.7033 O.3     1  UNL1       -0.4683
      9 O          64.3119   82.2939   10.7555 O.3     1  UNL1       -0.4712
     10 C          63.5170   81.0578   10.4555 C.3     1  UNL1        0.2525
     11 C          63.9281   83.4372   13.5024 C.2     1  UNL1        0.2330
     12 O          65.1026   83.9643   14.2723 O.2     1  UNL1       -0.2834
     13 C          63.2592   82.1654   13.9324 C.2     1  UNL1        0.2122
     14 C          61.7996   82.1652   14.2778 C.3     1  UNL1        0.0808
     15 O          64.0501   80.8935   14.0169 O.2     1  UNL1       -0.2879
     16 O          61.5216   87.5600   11.4502 O.3     1  UNL1       -0.4684
     17 C          62.2913   88.8403   11.3141 C.3     1  UNL1        0.2526
@<TRIPOS>BOND
     1     7     8    1
     2     8     1    1
     3     1     2   ar
     4     2     3   ar
     5     3     9    1
     6     9    10    1
     7     3     4   ar
     8     4    11    1
     9    11    12    2
    10    11    13    1
    11    13    14    1
    12    13    15    2
    13     4     5   ar
    14     5     6   ar
    15     6    16    1
    16    16    17    1
    17     6     1   ar
