@<TRIPOS>MOLECULE
*****
 27 29 0 0 0
SMALL
GASTEIGER

@<TRIPOS>ATOM
      1 C          61.1512   86.3761    9.2765 C.3     1  UNL1        0.0521
      2 C          61.9192   86.2438   10.5582 C.ar    1  UNL1        0.0606
      3 C          62.3974   87.4710   11.2760 C.ar    1  UNL1        0.0290
      4 C          63.1653   87.3389   12.5577 C.ar    1  UNL1        0.0475
      5 C          63.4551   85.9794   13.1217 C.ar    1  UNL1        0.0309
      6 C          64.2230   85.8472   14.4033 C.ar    1  UNL1        0.0027
      7 C          64.5128   84.4878   14.9672 C.ar    1  UNL1        0.0003
      8 C          64.0346   83.2606   14.2494 C.ar    1  UNL1        0.0060
      9 C          63.2666   83.3928   12.9677 C.ar    1  UNL1        0.0708
     10 C          62.9769   84.7522   12.4039 C.ar    1  UNL1        0.0864
     11 N          62.2089   84.8844   11.1221 N.ar    1  UNL1       -0.2494
     12 C          62.7884   82.1655   12.2500 C.2     1  UNL1        0.2442
     13 N          63.2880   81.8621   10.8686 N.am    1  UNL1       -0.3253
     14 O          61.8105   81.2418   12.9135 O.2     1  UNL1       -0.2703
     15 H          63.9299   82.4684   10.4330 H       1  UNL1        0.1453
     16 H          62.9742   81.0566   10.3975 H       1  UNL1        0.1453
     17 N          63.6435   88.5661   13.2755 N.pl3   1  UNL1       -0.3290
     18 H          64.3099   88.4868   13.9958 H       1  UNL1        0.1471
     19 C          63.1064   89.9141   12.8958 C.3     1  UNL1        0.1137
     20 C          64.0453   91.0006   12.4621 C.ar    1  UNL1       -0.0105
     21 C          63.9911   91.5219   11.0566 C.ar    1  UNL1       -0.0245
     22 C          62.9980   90.9567   10.0849 C.3     1  UNL1        0.0307
     23 C          64.9300   92.6083   10.6229 C.ar    1  UNL1       -0.0045
     24 C          65.9231   93.1735   11.5947 C.ar    1  UNL1       -0.0007
     25 C          65.9773   92.6523   13.0001 C.ar    1  UNL1       -0.0045
     26 C          65.0384   91.5658   13.4339 C.ar    1  UNL1       -0.0245
     27 C          65.0926   91.0445   14.8394 C.3     1  UNL1        0.0307
@<TRIPOS>BOND
     1     1     2    1
     2     2     3   ar
     3     3     4   ar
     4     4    17    1
     5    17    19    1
     6    19    20    1
     7    20    21   ar
     8    21    22    1
     9    21    23   ar
    10    23    24   ar
    11    24    25   ar
    12    25    26   ar
    13    26    27    1
    14     4     5   ar
    15     5     6   ar
    16     6     7   ar
    17     7     8   ar
    18     8     9   ar
    19     9    12    1
    20    12    13   am
    21    12    14    2
    22     9    10   ar
    23    10    11   ar
    24    11     2   ar
    25    26    20   ar
    26    10     5   ar
    27    17    18    1
    28    13    15    1
    29    13    16    1
@<TRIPOS>MOLECULE
*****
 27 29 0 0 0
SMALL
GASTEIGER

@<TRIPOS>ATOM
      1 C          63.3078   89.4750   16.2048 C.3     1  UNL1        0.0521
      2 C          63.5944   90.0925   14.8681 C.ar    1  UNL1        0.0606
      3 C          62.6966   89.8054   13.7013 C.ar    1  UNL1        0.0290
      4 C          62.9831   90.4228   12.3647 C.ar    1  UNL1        0.0475
      5 C          64.1676   91.3275   12.1948 C.ar    1  UNL1        0.0309
      6 C          64.4541   91.9449   10.8582 C.ar    1  UNL1        0.0027
      7 C          65.6385   92.8495   10.6884 C.ar    1  UNL1        0.0003
      8 C          66.5364   93.1366   11.8552 C.ar    1  UNL1        0.0060
      9 C          66.2498   92.5192   13.1918 C.ar    1  UNL1        0.0708
     10 C          65.0654   91.6146   13.3616 C.ar    1  UNL1        0.0864
     11 N          64.7788   90.9971   14.6983 N.ar    1  UNL1       -0.2494
     12 C          67.1477   92.8063   14.3586 C.2     1  UNL1        0.2442
     13 N          66.5560   93.1361   15.6969 N.am    1  UNL1       -0.3253
     14 O          68.6372   92.7636   14.1871 O.2     1  UNL1       -0.2703
     15 H          65.5784   93.1641   15.8095 H       1  UNL1        0.1453
     16 H          67.1453   93.3245   16.4627 H       1  UNL1        0.1453
     17 N          62.0853   90.1357   11.1979 N.pl3   1  UNL1       -0.3290
     18 H          62.0978   90.7261   10.4102 H       1  UNL1        0.1471
     19 C          61.1684   88.9490   11.2312 C.3     1  UNL1        0.1137
     20 C          61.3877   87.8051   10.2861 C.ar    1  UNL1       -0.0105
     21 C          62.2326   86.6382   10.7041 C.ar    1  UNL1       -0.0245
     22 C          62.8582   86.6154   12.0671 C.3     1  UNL1        0.0307
     23 C          62.4518   85.4942    9.7589 C.ar    1  UNL1       -0.0045
     24 C          61.8261   85.5171    8.3958 C.ar    1  UNL1       -0.0007
     25 C          60.9813   86.6840    7.9779 C.ar    1  UNL1       -0.0045
     26 C          60.7620   87.8279    8.9230 C.ar    1  UNL1       -0.0245
     27 C          59.9171   88.9948    8.5050 C.3     1  UNL1        0.0307
@<TRIPOS>BOND
     1     1     2    1
     2     2     3   ar
     3     3     4   ar
     4     4    17    1
     5    17    19    1
     6    19    20    1
     7    20    21   ar
     8    21    22    1
     9    21    23   ar
    10    23    24   ar
    11    24    25   ar
    12    25    26   ar
    13    26    27    1
    14     4     5   ar
    15     5     6   ar
    16     6     7   ar
    17     7     8   ar
    18     8     9   ar
    19     9    12    1
    20    12    13   am
    21    12    14    2
    22     9    10   ar
    23    10    11   ar
    24    11     2   ar
    25    26    20   ar
    26    10     5   ar
    27    17    18    1
    28    13    15    1
    29    13    16    1
@<TRIPOS>MOLECULE
*****
 27 29 0 0 0
SMALL
GASTEIGER

@<TRIPOS>ATOM
      1 C          61.2147   85.8967    9.4667 C.3     1  UNL1        0.0521
      2 C          61.9538   86.5653   10.5878 C.ar    1  UNL1        0.0606
      3 C          62.5000   85.7463   11.7195 C.ar    1  UNL1        0.0290
      4 C          63.2390   86.4148   12.8406 C.ar    1  UNL1        0.0475
      5 C          63.4319   87.9024   12.8299 C.ar    1  UNL1        0.0309
      6 C          64.1710   88.5709   13.9510 C.ar    1  UNL1        0.0027
      7 C          64.3639   90.0584   13.9402 C.ar    1  UNL1        0.0003
      8 C          63.8177   90.8773   12.8084 C.ar    1  UNL1        0.0060
      9 C          63.0786   90.2088   11.6874 C.ar    1  UNL1        0.0708
     10 C          62.8857   88.7214   11.6981 C.ar    1  UNL1        0.0864
     11 N          62.1466   88.0528   10.5770 N.ar    1  UNL1       -0.2494
     12 C          62.5324   91.0278   10.5556 C.2     1  UNL1        0.2442
     13 N          61.1117   90.8411   10.1121 N.am    1  UNL1       -0.3253
     14 O          63.4069   92.0335    9.8673 O.2     1  UNL1       -0.2703
     15 H          60.5377   90.1810   10.5638 H       1  UNL1        0.1453
     16 H          60.7532   91.3786    9.3693 H       1  UNL1        0.1453
     17 N          63.7852   85.5959   13.9724 N.pl3   1  UNL1       -0.3290
     18 H          63.7193   85.9279   14.8969 H       1  UNL1        0.1471
     19 C          64.4318   84.2710   13.6957 C.3     1  UNL1        0.1137
     20 C          63.5840   83.0498   13.4958 C.ar    1  UNL1       -0.0105
     21 C          62.6182   82.6246   14.5619 C.ar    1  UNL1       -0.0245
     22 C          62.5002   83.4206   15.8278 C.3     1  UNL1        0.0307
     23 C          61.7703   81.4035   14.3621 C.ar    1  UNL1       -0.0045
     24 C          61.8883   80.6075   13.0961 C.ar    1  UNL1       -0.0007
     25 C          62.8541   81.0327   12.0301 C.ar    1  UNL1       -0.0045
     26 C          63.7019   82.2539   12.2300 C.ar    1  UNL1       -0.0245
     27 C          64.6677   82.6791   11.1638 C.3     1  UNL1        0.0307
@<TRIPOS>BOND
     1     1     2    1
     2     2     3   ar
     3     3     4   ar
     4     4    17    1
     5    17    19    1
     6    19    20    1
     7    20    21   ar
     8    21    22    1
     9    21    23   ar
    10    23    24   ar
    11    24    25   ar
    12    25    26   ar
    13    26    27    1
    14     4     5   ar
    15     5     6   ar
    16     6     7   ar
    17     7     8   ar
    18     8     9   ar
    19     9    12    1
    20    12    13   am
    21    12    14    2
    22     9    10   ar
    23    10    11   ar
    24    11     2   ar
    25    26    20   ar
    26    10     5   ar
    27    17    18    1
    28    13    15    1
    29    13    16    1
@<TRIPOS>MOLECULE
*****
 27 29 0 0 0
SMALL
GASTEIGER

@<TRIPOS>ATOM
      1 C          60.8054   86.1567    8.8552 C.3     1  UNL1        0.0521
      2 C          61.5702   86.5858   10.0722 C.ar    1  UNL1        0.0606
      3 C          61.9840   85.5695   11.0949 C.ar    1  UNL1        0.0290
      4 C          62.7488   85.9985   12.3118 C.ar    1  UNL1        0.0475
      5 C          63.0998   87.4440   12.5061 C.ar    1  UNL1        0.0309
      6 C          63.8646   87.8730   13.7231 C.ar    1  UNL1        0.0027
      7 C          64.2155   89.3183   13.9173 C.ar    1  UNL1        0.0003
      8 C          63.8017   90.3346   12.8947 C.ar    1  UNL1        0.0060
      9 C          63.0369   89.9056   11.6777 C.ar    1  UNL1        0.0708
     10 C          62.6860   88.4603   11.4835 C.ar    1  UNL1        0.0864
     11 N          61.9211   88.0312   10.2665 N.ar    1  UNL1       -0.2494
     12 C          62.6231   90.9219   10.6550 C.2     1  UNL1        0.2442
     13 N          61.2454   90.8730   10.0639 N.am    1  UNL1       -0.3253
     14 O          63.5869   91.9871   10.2235 O.2     1  UNL1       -0.2703
     15 H          60.6127   90.1738   10.3471 H       1  UNL1        0.1453
     16 H          60.9738   91.5400    9.3927 H       1  UNL1        0.1453
     17 N          63.1627   84.9822   13.3345 N.pl3   1  UNL1       -0.3290
     18 H          62.7942   85.0234   14.2465 H       1  UNL1        0.1471
     19 C          64.1379   83.9032   12.9676 C.3     1  UNL1        0.1137
     20 C          63.6394   82.5829   12.4593 C.ar    1  UNL1       -0.0105
     21 C          63.8078   82.2244   11.0125 C.ar    1  UNL1       -0.0245
     22 C          64.4745   83.1860   10.0741 C.3     1  UNL1        0.0307
     23 C          63.3093   80.9041   10.5041 C.ar    1  UNL1       -0.0045
     24 C          62.6425   79.9424   11.4426 C.ar    1  UNL1       -0.0007
     25 C          62.4742   80.3010   12.8893 C.ar    1  UNL1       -0.0045
     26 C          62.9727   81.6213   13.3977 C.ar    1  UNL1       -0.0245
     27 C          62.8044   81.9799   14.8445 C.3     1  UNL1        0.0307
@<TRIPOS>BOND
     1     1     2    1
     2     2     3   ar
     3     3     4   ar
     4     4    17    1
     5    17    19    1
     6    19    20    1
     7    20    21   ar
     8    21    22    1
     9    21    23   ar
    10    23    24   ar
    11    24    25   ar
    12    25    26   ar
    13    26    27    1
    14     4     5   ar
    15     5     6   ar
    16     6     7   ar
    17     7     8   ar
    18     8     9   ar
    19     9    12    1
    20    12    13   am
    21    12    14    2
    22     9    10   ar
    23    10    11   ar
    24    11     2   ar
    25    26    20   ar
    26    10     5   ar
    27    17    18    1
    28    13    15    1
    29    13    16    1
@<TRIPOS>MOLECULE
*****
 27 29 0 0 0
SMALL
GASTEIGER

@<TRIPOS>ATOM
      1 C          61.0612   89.7022    9.4596 C.3     1  UNL1        0.0521
      2 C          61.7511   88.8672   10.4974 C.ar    1  UNL1        0.0606
      3 C          61.7028   87.3706   10.4094 C.ar    1  UNL1        0.0290
      4 C          62.3927   86.5357   11.4471 C.ar    1  UNL1        0.0475
      5 C          63.1309   87.1974   12.5729 C.ar    1  UNL1        0.0309
      6 C          63.8208   86.3624   13.6106 C.ar    1  UNL1        0.0027
      7 C          64.5590   87.0241   14.7363 C.ar    1  UNL1        0.0003
      8 C          64.6073   88.5207   14.8242 C.ar    1  UNL1        0.0060
      9 C          63.9174   89.3557   13.7865 C.ar    1  UNL1        0.0708
     10 C          63.1792   88.6940   12.6608 C.ar    1  UNL1        0.0864
     11 N          62.4893   89.5289   11.6230 N.ar    1  UNL1       -0.2494
     12 C          63.9657   90.8523   13.8745 C.2     1  UNL1        0.2442
     13 N          64.4342   91.6580   12.6992 N.am    1  UNL1       -0.3253
     14 O          63.5455   91.5433   15.1378 O.2     1  UNL1       -0.2703
     15 H          64.7100   91.2045   11.8700 H       1  UNL1        0.1453
     16 H          64.4659   92.6403   12.7569 H       1  UNL1        0.1453
     17 N          62.3444   85.0390   11.3591 N.pl3   1  UNL1       -0.3290
     18 H          61.6906   84.6016   10.7672 H       1  UNL1        0.1471
     19 C          63.2923   84.2089   12.1730 C.3     1  UNL1        0.1137
     20 C          62.9129   82.8144   12.5748 C.ar    1  UNL1       -0.0105
     21 C          62.3221   82.5588   13.9296 C.ar    1  UNL1       -0.0245
     22 C          62.1107   83.6976   14.8827 C.3     1  UNL1        0.0307
     23 C          61.9428   81.1642   14.3314 C.ar    1  UNL1       -0.0045
     24 C          62.1542   80.0254   13.3783 C.ar    1  UNL1       -0.0007
     25 C          62.7450   80.2811   12.0235 C.ar    1  UNL1       -0.0045
     26 C          63.1244   81.6756   11.6217 C.ar    1  UNL1       -0.0245
     27 C          63.7152   81.9312   10.2668 C.3     1  UNL1        0.0307
@<TRIPOS>BOND
     1     1     2    1
     2     2     3   ar
     3     3     4   ar
     4     4    17    1
     5    17    19    1
     6    19    20    1
     7    20    21   ar
     8    21    22    1
     9    21    23   ar
    10    23    24   ar
    11    24    25   ar
    12    25    26   ar
    13    26    27    1
    14     4     5   ar
    15     5     6   ar
    16     6     7   ar
    17     7     8   ar
    18     8     9   ar
    19     9    12    1
    20    12    13   am
    21    12    14    2
    22     9    10   ar
    23    10    11   ar
    24    11     2   ar
    25    26    20   ar
    26    10     5   ar
    27    17    18    1
    28    13    15    1
    29    13    16    1
@<TRIPOS>MOLECULE
*****
 27 29 0 0 0
SMALL
GASTEIGER

@<TRIPOS>ATOM
      1 C          64.6290   86.1770   15.0393 C.3     1  UNL1        0.0521
      2 C          64.0955   87.2478   14.1344 C.ar    1  UNL1        0.0606
      3 C          64.2063   88.6898   14.5322 C.ar    1  UNL1        0.0290
      4 C          63.6728   89.7606   13.6274 C.ar    1  UNL1        0.0475
      5 C          63.0285   89.3894   12.3246 C.ar    1  UNL1        0.0309
      6 C          62.4950   90.4602   11.4198 C.ar    1  UNL1        0.0027
      7 C          61.8507   90.0890   10.1171 C.ar    1  UNL1        0.0003
      8 C          61.7399   88.6470    9.7193 C.ar    1  UNL1        0.0060
      9 C          62.2733   87.5762   10.6241 C.ar    1  UNL1        0.0708
     10 C          62.9176   87.9474   11.9268 C.ar    1  UNL1        0.0864
     11 N          63.4512   86.8766   12.8317 N.ar    1  UNL1       -0.2494
     12 C          62.1625   86.1341   10.2263 C.2     1  UNL1        0.2442
     13 N          61.7936   85.1003   11.2485 N.am    1  UNL1       -0.3253
     14 O          62.4205   85.7260    8.8061 O.2     1  UNL1       -0.2703
     15 H          61.6243   85.3682   12.1806 H       1  UNL1        0.1453
     16 H          61.7209   84.1539   10.9874 H       1  UNL1        0.1453
     17 N          63.7837   91.2027   14.0252 N.pl3   1  UNL1       -0.3290
     18 H          63.1363   91.5899   14.6578 H       1  UNL1        0.1471
     19 C          64.8808   92.0546   13.4593 C.3     1  UNL1        0.1137
     20 C          66.1850   92.1807   14.1895 C.ar    1  UNL1       -0.0105
     21 C          67.4770   92.1508   13.4279 C.ar    1  UNL1       -0.0245
     22 C          67.4647   91.9949   11.9361 C.3     1  UNL1        0.0307
     23 C          68.7811   92.2768   14.1581 C.ar    1  UNL1       -0.0045
     24 C          68.7933   92.4327   15.6500 C.ar    1  UNL1       -0.0007
     25 C          67.5014   92.4626   16.4116 C.ar    1  UNL1       -0.0045
     26 C          66.1972   92.3366   15.6813 C.ar    1  UNL1       -0.0245
     27 C          64.9053   92.3664   16.4430 C.3     1  UNL1        0.0307
@<TRIPOS>BOND
     1     1     2    1
     2     2     3   ar
     3     3     4   ar
     4     4    17    1
     5    17    19    1
     6    19    20    1
     7    20    21   ar
     8    21    22    1
     9    21    23   ar
    10    23    24   ar
    11    24    25   ar
    12    25    26   ar
    13    26    27    1
    14     4     5   ar
    15     5     6   ar
    16     6     7   ar
    17     7     8   ar
    18     8     9   ar
    19     9    12    1
    20    12    13   am
    21    12    14    2
    22     9    10   ar
    23    10    11   ar
    24    11     2   ar
    25    26    20   ar
    26    10     5   ar
    27    17    18    1
    28    13    15    1
    29    13    16    1
@<TRIPOS>MOLECULE
*****
 27 29 0 0 0
SMALL
GASTEIGER

@<TRIPOS>ATOM
      1 C          62.7127   83.6870   11.5313 C.3     1  UNL1        0.0521
      2 C          62.4791   85.1590   11.3617 C.ar    1  UNL1        0.0606
      3 C          63.1437   86.1353   12.2864 C.ar    1  UNL1        0.0290
      4 C          62.9101   87.6072   12.1169 C.ar    1  UNL1        0.0475
      5 C          62.0119   88.1029   11.0225 C.ar    1  UNL1        0.0309
      6 C          61.7783   89.5749   10.8529 C.ar    1  UNL1        0.0027
      7 C          60.8801   90.0705    9.7586 C.ar    1  UNL1        0.0003
      8 C          60.2156   89.0942    8.8338 C.ar    1  UNL1        0.0060
      9 C          60.4492   87.6223    9.0034 C.ar    1  UNL1        0.0708
     10 C          61.3473   87.1266   10.0977 C.ar    1  UNL1        0.0864
     11 N          61.5809   85.6546   10.2673 N.ar    1  UNL1       -0.2494
     12 C          59.7846   86.6460    8.0786 C.2     1  UNL1        0.2442
     13 N          60.6023   85.6041    7.3744 N.am    1  UNL1       -0.3253
     14 O          58.3024   86.7115    7.8581 O.2     1  UNL1       -0.2703
     15 H          61.5751   85.5611    7.5191 H       1  UNL1        0.1453
     16 H          60.1661   84.9634    6.7674 H       1  UNL1        0.1453
     17 N          63.5746   88.5835   13.0417 N.pl3   1  UNL1       -0.3290
     18 H          64.1755   88.2590   13.7508 H       1  UNL1        0.1471
     19 C          63.3237   90.0541   12.8859 C.3     1  UNL1        0.1137
     20 C          64.3152   91.0448   13.4202 C.ar    1  UNL1       -0.0105
     21 C          65.0228   91.9778   12.4826 C.ar    1  UNL1       -0.0245
     22 C          64.7389   91.9200   11.0109 C.3     1  UNL1        0.0307
     23 C          66.0143   92.9685   13.0168 C.ar    1  UNL1       -0.0045
     24 C          66.2982   93.0263   14.4886 C.ar    1  UNL1       -0.0007
     25 C          65.5906   92.0934   15.4261 C.ar    1  UNL1       -0.0045
     26 C          64.5991   91.1026   14.8919 C.ar    1  UNL1       -0.0245
     27 C          63.8916   90.1697   15.8295 C.3     1  UNL1        0.0307
@<TRIPOS>BOND
     1     1     2    1
     2     2     3   ar
     3     3     4   ar
     4     4    17    1
     5    17    19    1
     6    19    20    1
     7    20    21   ar
     8    21    22    1
     9    21    23   ar
    10    23    24   ar
    11    24    25   ar
    12    25    26   ar
    13    26    27    1
    14     4     5   ar
    15     5     6   ar
    16     6     7   ar
    17     7     8   ar
    18     8     9   ar
    19     9    12    1
    20    12    13   am
    21    12    14    2
    22     9    10   ar
    23    10    11   ar
    24    11     2   ar
    25    26    20   ar
    26    10     5   ar
    27    17    18    1
    28    13    15    1
    29    13    16    1
@<TRIPOS>MOLECULE
*****
 27 29 0 0 0
SMALL
GASTEIGER

@<TRIPOS>ATOM
      1 C          62.6017   84.5749    7.2991 C.3     1  UNL1        0.0521
      2 C          62.2321   85.4888    8.4297 C.ar    1  UNL1        0.0606
      3 C          62.7241   85.2020    9.8174 C.ar    1  UNL1        0.0290
      4 C          62.3546   86.1158   10.9480 C.ar    1  UNL1        0.0475
      5 C          61.4930   87.3165   10.6910 C.ar    1  UNL1        0.0309
      6 C          61.1235   88.2304   11.8216 C.ar    1  UNL1        0.0027
      7 C          60.2619   89.4310   11.5645 C.ar    1  UNL1        0.0003
      8 C          59.7699   89.7178   10.1768 C.ar    1  UNL1        0.0060
      9 C          60.1394   88.8040    9.0462 C.ar    1  UNL1        0.0708
     10 C          61.0010   87.6033    9.3033 C.ar    1  UNL1        0.0864
     11 N          61.3706   86.6894    8.1727 N.ar    1  UNL1       -0.2494
     12 C          59.6474   89.0908    7.6585 C.2     1  UNL1        0.2442
     13 N          58.7196   88.1285    6.9779 N.am    1  UNL1       -0.3253
     14 O          60.0831   90.3398    6.9515 O.2     1  UNL1       -0.2703
     15 H          58.4336   87.3087    7.4420 H       1  UNL1        0.1453
     16 H          58.3967   88.3168    6.0671 H       1  UNL1        0.1453
     17 N          62.8466   85.8290   12.3357 N.pl3   1  UNL1       -0.3290
     18 H          62.5727   86.4067   13.0843 H       1  UNL1        0.1471
     19 C          63.7561   84.6621   12.5827 C.3     1  UNL1        0.1137
     20 C          63.1778   83.3065   12.8620 C.ar    1  UNL1       -0.0105
     21 C          63.3509   82.1977   11.8665 C.ar    1  UNL1       -0.0245
     22 C          64.1022   82.4446   10.5920 C.3     1  UNL1        0.0307
     23 C          62.7726   80.8421   12.1458 C.ar    1  UNL1       -0.0045
     24 C          62.0213   80.5953   13.4204 C.ar    1  UNL1       -0.0007
     25 C          61.8483   81.7040   14.4157 C.ar    1  UNL1       -0.0045
     26 C          62.4265   83.0596   14.1365 C.ar    1  UNL1       -0.0245
     27 C          62.2535   84.1683   15.1320 C.3     1  UNL1        0.0307
@<TRIPOS>BOND
     1     1     2    1
     2     2     3   ar
     3     3     4   ar
     4     4    17    1
     5    17    19    1
     6    19    20    1
     7    20    21   ar
     8    21    22    1
     9    21    23   ar
    10    23    24   ar
    11    24    25   ar
    12    25    26   ar
    13    26    27    1
    14     4     5   ar
    15     5     6   ar
    16     6     7   ar
    17     7     8   ar
    18     8     9   ar
    19     9    12    1
    20    12    13   am
    21    12    14    2
    22     9    10   ar
    23    10    11   ar
    24    11     2   ar
    25    26    20   ar
    26    10     5   ar
    27    17    18    1
    28    13    15    1
    29    13    16    1
@<TRIPOS>MOLECULE
*****
 27 29 0 0 0
SMALL
GASTEIGER

@<TRIPOS>ATOM
      1 C          60.5731   86.1892    9.0187 C.3     1  UNL1        0.0521
      2 C          61.4478   86.5384   10.1862 C.ar    1  UNL1        0.0606
      3 C          61.9251   87.9485   10.3705 C.ar    1  UNL1        0.0290
      4 C          62.7998   88.2977   11.5379 C.ar    1  UNL1        0.0475
      5 C          63.1972   87.2369   12.5211 C.ar    1  UNL1        0.0309
      6 C          64.0719   87.5861   13.6886 C.ar    1  UNL1        0.0027
      7 C          64.4693   86.5253   14.6717 C.ar    1  UNL1        0.0003
      8 C          63.9921   85.1152   14.4875 C.ar    1  UNL1        0.0060
      9 C          63.1174   84.7660   13.3200 C.ar    1  UNL1        0.0708
     10 C          62.7200   85.8268   12.3369 C.ar    1  UNL1        0.0864
     11 N          61.8453   85.4776   11.1694 N.ar    1  UNL1       -0.2494
     12 C          62.6402   83.3559   13.1358 C.2     1  UNL1        0.2442
     13 N          62.7311   82.7034   11.7882 N.am    1  UNL1       -0.3253
     14 O          62.0720   82.5984   14.2990 O.2     1  UNL1       -0.2703
     15 H          63.1040   83.2006   11.0247 H       1  UNL1        0.1453
     16 H          62.4178   81.7779   11.6673 H       1  UNL1        0.1453
     17 N          63.2770   89.7078   11.7222 N.pl3   1  UNL1       -0.3290
     18 H          63.7031   90.1850   10.9739 H       1  UNL1        0.1471
     19 C          63.1051   90.3908   13.0465 C.3     1  UNL1        0.1137
     20 C          64.2191   91.2204   13.6128 C.ar    1  UNL1       -0.0105
     21 C          64.4931   91.2018   15.0875 C.ar    1  UNL1       -0.0245
     22 C          63.6532   90.3537   15.9958 C.3     1  UNL1        0.0307
     23 C          65.6072   92.0315   15.6538 C.ar    1  UNL1       -0.0045
     24 C          66.4471   92.8796   14.7454 C.ar    1  UNL1       -0.0007
     25 C          66.1731   92.8981   13.2708 C.ar    1  UNL1       -0.0045
     26 C          65.0590   92.0685   12.7045 C.ar    1  UNL1       -0.0245
     27 C          64.7850   92.0871   11.2298 C.3     1  UNL1        0.0307
@<TRIPOS>BOND
     1     1     2    1
     2     2     3   ar
     3     3     4   ar
     4     4    17    1
     5    17    19    1
     6    19    20    1
     7    20    21   ar
     8    21    22    1
     9    21    23   ar
    10    23    24   ar
    11    24    25   ar
    12    25    26   ar
    13    26    27    1
    14     4     5   ar
    15     5     6   ar
    16     6     7   ar
    17     7     8   ar
    18     8     9   ar
    19     9    12    1
    20    12    13   am
    21    12    14    2
    22     9    10   ar
    23    10    11   ar
    24    11     2   ar
    25    26    20   ar
    26    10     5   ar
    27    17    18    1
    28    13    15    1
    29    13    16    1
