@<TRIPOS>MOLECULE
*****
 36 39 0 0 0
SMALL
GASTEIGER

@<TRIPOS>ATOM
      1 C          59.1985   91.6884    4.2144 C.ar    1  UNL1        0.0154
      2 C          57.7159   91.9040    4.2881 C.ar    1  UNL1        0.0985
      3 N          56.9002   91.1646    5.3068 N.ar    1  UNL1       -0.2423
      4 C          57.5671   90.2094    6.2518 C.ar    1  UNL1        0.0985
      5 C          59.0497   89.9937    6.1781 C.ar    1  UNL1        0.0152
      6 C          59.8654   90.7332    5.1593 C.ar    1  UNL1       -0.0188
      7 C          61.3479   90.5175    5.0855 C.3     1  UNL1        0.0311
      8 C          60.1481   93.9879    1.1224 C.ar    1  UNL1        0.1452
      9 C          59.3325   93.2484    2.1411 C.ar    1  UNL1        0.0372
     10 C          60.0142   92.4279    3.1956 C.ar    1  UNL1        0.0064
     11 C          61.5115   92.3468    3.2314 C.ar    1  UNL1        0.0300
     12 C          62.3272   93.0863    2.2126 C.ar    1  UNL1        0.1474
     13 F          63.8246   93.0053    2.2484 F       1  UNL1       -0.2039
     14 C          61.6454   93.9069    1.1582 C.ar    1  UNL1        0.1144
     15 C          62.4611   94.6464    0.1394 C.2     1  UNL1        0.2479
     16 N          62.2304   94.4071   -1.3233 N.am    1  UNL1       -0.3252
     17 O          63.5075   95.6251    0.5833 O.2     1  UNL1       -0.2702
     18 H          61.5436   93.7648   -1.6147 H       1  UNL1        0.1453
     19 H          62.7658   94.8925   -1.9920 H       1  UNL1        0.1453
     20 C          58.1752   94.3361   -0.5318 C.3     1  UNL1        0.2525
     21 O          59.4664   94.8085    0.0679 O.3     1  UNL1       -0.4712
     22 C          59.7165   89.0386    7.1230 C.ar    1  UNL1        0.0013
     23 C          59.6935   87.5656    6.8408 C.ar    1  UNL1        0.0013
     24 C          60.3604   86.6103    7.7857 C.ar    1  UNL1        0.0145
     25 C          61.0503   87.1282    9.0129 C.ar    1  UNL1        0.0479
     26 C          61.0733   88.6013    9.2951 C.ar    1  UNL1        0.0145
     27 C          60.4064   89.5564    8.3501 C.ar    1  UNL1        0.0013
     28 N          61.7172   86.1731    9.9578 N.pl3   1  UNL1       -0.3046
     29 C          62.6682   85.1392    9.4320 C.3     1  UNL1        0.1081
     30 C          63.3352   84.1839   10.3769 C.3     1  UNL1        0.0938
     31 N          63.0510   84.2627   11.8477 N.3     1  UNL1       -0.2711
     32 C          62.0999   85.2967   12.3735 C.3     1  UNL1        0.0938
     33 C          61.4330   86.2518   11.4285 C.3     1  UNL1        0.1081
     34 C          63.7179   83.3076   12.7926 C.3     1  UNL1        0.0577
     35 C          63.5331   81.8291   12.6192 C.3     1  UNL1        0.0173
     36 C          64.5696   83.8308   13.9110 C.3     1  UNL1        0.0173
@<TRIPOS>BOND
     1    20    21    1
     2    21     8    1
     3     8     9   ar
     4     9    10   ar
     5    10     1    1
     6     1     2   ar
     7     2     3   ar
     8     3     4   ar
     9     4     5   ar
    10     5    22    1
    11    22    23   ar
    12    23    24   ar
    13    24    25   ar
    14    25    28    1
    15    28    29    1
    16    29    30    1
    17    30    31    1
    18    31    34    1
    19    34    35    1
    20    34    36    1
    21    31    32    1
    22    32    33    1
    23    25    26   ar
    24    26    27   ar
    25     5     6   ar
    26     6     7    1
    27    10    11   ar
    28    11    12   ar
    29    12    13    1
    30    12    14   ar
    31    14    15    1
    32    15    16   am
    33    15    17    2
    34    14     8   ar
    35     6     1   ar
    36    27    22   ar
    37    33    28    1
    38    16    18    1
    39    16    19    1
@<TRIPOS>MOLECULE
*****
 36 39 0 0 0
SMALL
GASTEIGER

@<TRIPOS>ATOM
      1 C          59.0170   91.7685    4.1211 C.ar    1  UNL1        0.0154
      2 C          57.5369   91.9898    4.2239 C.ar    1  UNL1        0.0985
      3 N          56.7396   91.2579    5.2624 N.ar    1  UNL1       -0.2423
      4 C          57.4222   90.3046    6.1980 C.ar    1  UNL1        0.0985
      5 C          58.9022   90.0833    6.0952 C.ar    1  UNL1        0.0152
      6 C          59.6996   90.8153    5.0566 C.ar    1  UNL1       -0.0188
      7 C          61.1796   90.5940    4.9538 C.3     1  UNL1        0.0311
      8 C          62.0973   93.3708    2.1990 C.ar    1  UNL1        0.1452
      9 C          61.2999   92.6389    3.2374 C.ar    1  UNL1        0.0372
     10 C          59.8143   92.5005    3.0826 C.ar    1  UNL1        0.0064
     11 C          59.1262   93.0941    1.8893 C.ar    1  UNL1        0.0300
     12 C          59.9236   93.8261    0.8508 C.ar    1  UNL1        0.1474
     13 F          59.2354   94.4197   -0.3426 F       1  UNL1       -0.2039
     14 C          61.4091   93.9644    1.0057 C.ar    1  UNL1        0.1144
     15 C          62.2065   94.6964   -0.0328 C.2     1  UNL1        0.2479
     16 N          63.0387   95.8816    0.3582 N.am    1  UNL1       -0.3252
     17 O          62.1717   94.2432   -1.4623 O.2     1  UNL1       -0.2702
     18 H          63.0615   96.1790    1.2964 H       1  UNL1        0.1453
     19 H          63.5620   96.3620   -0.3234 H       1  UNL1        0.1453
     20 C          64.5054   92.7362    1.4587 C.3     1  UNL1        0.2525
     21 O          63.5828   93.5091    2.3538 O.3     1  UNL1       -0.4712
     22 C          59.5848   89.1301    7.0307 C.ar    1  UNL1        0.0013
     23 C          60.2781   89.6487    8.2556 C.ar    1  UNL1        0.0013
     24 C          60.9608   88.6955    9.1913 C.ar    1  UNL1        0.0145
     25 C          60.9501   87.2237    8.9020 C.ar    1  UNL1        0.0479
     26 C          60.2568   86.7051    7.6770 C.ar    1  UNL1        0.0145
     27 C          59.5742   87.6583    6.7414 C.ar    1  UNL1        0.0013
     28 N          61.6328   86.2705    9.8375 N.pl3   1  UNL1       -0.3046
     29 C          62.5647   85.2270    9.2967 C.3     1  UNL1        0.1081
     30 C          63.2474   84.2737   10.2323 C.3     1  UNL1        0.0938
     31 N          62.9981   84.3640   11.7087 N.3     1  UNL1       -0.2711
     32 C          62.0661   85.4076   12.2495 C.3     1  UNL1        0.0938
     33 C          61.3835   86.3608   11.3139 C.3     1  UNL1        0.1081
     34 C          63.6807   83.4107   12.6443 C.3     1  UNL1        0.0577
     35 C          64.6295   82.3812   12.1056 C.3     1  UNL1        0.0173
     36 C          63.4147   83.4870   14.1185 C.3     1  UNL1        0.0173
@<TRIPOS>BOND
     1    20    21    1
     2    21     8    1
     3     8     9   ar
     4     9    10   ar
     5    10     1    1
     6     1     2   ar
     7     2     3   ar
     8     3     4   ar
     9     4     5   ar
    10     5    22    1
    11    22    23   ar
    12    23    24   ar
    13    24    25   ar
    14    25    28    1
    15    28    29    1
    16    29    30    1
    17    30    31    1
    18    31    34    1
    19    34    35    1
    20    34    36    1
    21    31    32    1
    22    32    33    1
    23    25    26   ar
    24    26    27   ar
    25     5     6   ar
    26     6     7    1
    27    10    11   ar
    28    11    12   ar
    29    12    13    1
    30    12    14   ar
    31    14    15    1
    32    15    16   am
    33    15    17    2
    34    14     8   ar
    35     6     1   ar
    36    27    22   ar
    37    33    28    1
    38    16    18    1
    39    16    19    1
@<TRIPOS>MOLECULE
*****
 36 39 0 0 0
SMALL
GASTEIGER

@<TRIPOS>ATOM
      1 C          60.5003   88.3133    9.3713 C.ar    1  UNL1        0.0154
      2 C          59.5473   87.1575    9.2947 C.ar    1  UNL1        0.0985
      3 N          58.6293   87.0192    8.1165 N.ar    1  UNL1       -0.2423
      4 C          58.6644   88.0367    7.0148 C.ar    1  UNL1        0.0985
      5 C          59.6175   89.1925    7.0915 C.ar    1  UNL1        0.0152
      6 C          60.5355   89.3307    8.2698 C.ar    1  UNL1       -0.0188
      7 C          61.4886   90.4865    8.3464 C.3     1  UNL1        0.0311
      8 C          62.9217   87.3671   12.3700 C.ar    1  UNL1        0.1452
      9 C          62.0038   87.2289   11.1918 C.ar    1  UNL1        0.0372
     10 C          61.4183   88.4515   10.5496 C.ar    1  UNL1        0.0064
     11 C          61.7508   89.8124   11.0857 C.ar    1  UNL1        0.0300
     12 C          62.6687   89.9506   12.2639 C.ar    1  UNL1        0.1474
     13 F          63.0013   91.3115   12.8001 F       1  UNL1       -0.2039
     14 C          63.2542   88.7279   12.9061 C.ar    1  UNL1        0.1144
     15 C          64.1721   88.8662   14.0843 C.2     1  UNL1        0.2479
     16 N          64.1803   87.8166   15.1559 N.am    1  UNL1       -0.3252
     17 O          65.0819   90.0540   14.1910 O.2     1  UNL1       -0.2702
     18 H          63.5832   87.0370   15.0859 H       1  UNL1        0.1453
     19 H          64.7828   87.9073   15.9292 H       1  UNL1        0.1453
     20 C          62.9855   84.7851   12.6515 C.3     1  UNL1        0.2525
     21 O          63.5071   86.1444   13.0121 O.3     1  UNL1       -0.4712
     22 C          59.6526   90.2099    5.9899 C.ar    1  UNL1        0.0013
     23 C          58.3976   90.9290    5.5929 C.ar    1  UNL1        0.0013
     24 C          58.4327   91.9465    4.4912 C.ar    1  UNL1        0.0145
     25 C          59.7229   92.2449    3.7867 C.ar    1  UNL1        0.0479
     26 C          60.9780   91.5258    4.1838 C.ar    1  UNL1        0.0145
     27 C          60.9428   90.5083    5.2854 C.ar    1  UNL1        0.0013
     28 N          59.7580   93.2624    2.6852 N.pl3   1  UNL1       -0.3046
     29 C          60.2007   94.6660    2.9746 C.3     1  UNL1        0.1081
     30 C          60.2358   95.6836    1.8730 C.3     1  UNL1        0.0938
     31 N          59.8283   95.2974    0.4820 N.3     1  UNL1       -0.2711
     32 C          59.3856   93.8937    0.1926 C.3     1  UNL1        0.0938
     33 C          59.3505   92.8762    1.2942 C.3     1  UNL1        0.1081
     34 C          59.8634   96.3149   -0.6196 C.3     1  UNL1        0.0577
     35 C          61.1777   96.8559   -1.0992 C.3     1  UNL1        0.0173
     36 C          58.5843   96.7913   -1.2415 C.3     1  UNL1        0.0173
@<TRIPOS>BOND
     1    20    21    1
     2    21     8    1
     3     8     9   ar
     4     9    10   ar
     5    10     1    1
     6     1     2   ar
     7     2     3   ar
     8     3     4   ar
     9     4     5   ar
    10     5    22    1
    11    22    23   ar
    12    23    24   ar
    13    24    25   ar
    14    25    28    1
    15    28    29    1
    16    29    30    1
    17    30    31    1
    18    31    34    1
    19    34    35    1
    20    34    36    1
    21    31    32    1
    22    32    33    1
    23    25    26   ar
    24    26    27   ar
    25     5     6   ar
    26     6     7    1
    27    10    11   ar
    28    11    12   ar
    29    12    13    1
    30    12    14   ar
    31    14    15    1
    32    15    16   am
    33    15    17    2
    34    14     8   ar
    35     6     1   ar
    36    27    22   ar
    37    33    28    1
    38    16    18    1
    39    16    19    1
@<TRIPOS>MOLECULE
*****
 36 39 0 0 0
SMALL
GASTEIGER

@<TRIPOS>ATOM
      1 C          60.5170   88.2758    9.3309 C.ar    1  UNL1        0.0154
      2 C          59.5433   87.1369    9.2621 C.ar    1  UNL1        0.0985
      3 N          58.6059   87.0210    8.0968 N.ar    1  UNL1       -0.2423
      4 C          58.6421   88.0441    7.0004 C.ar    1  UNL1        0.0985
      5 C          59.6159   89.1830    7.0692 C.ar    1  UNL1        0.0152
      6 C          60.5533   89.2989    8.2345 C.ar    1  UNL1       -0.0188
      7 C          61.5270   90.4378    8.3033 C.3     1  UNL1        0.0311
      8 C          62.7938   89.8607   12.1689 C.ar    1  UNL1        0.1452
      9 C          61.8564   89.7448   11.0037 C.ar    1  UNL1        0.0372
     10 C          61.4545   88.3917   10.4962 C.ar    1  UNL1        0.0064
     11 C          61.9899   87.1545   11.1539 C.ar    1  UNL1        0.0300
     12 C          62.9273   87.2705   12.3192 C.ar    1  UNL1        0.1474
     13 F          63.4628   86.0332   12.9770 F       1  UNL1       -0.2039
     14 C          63.3292   88.6236   12.8266 C.ar    1  UNL1        0.1144
     15 C          64.2667   88.7394   13.9919 C.2     1  UNL1        0.2479
     16 N          65.0430   90.0048   14.2071 N.am    1  UNL1       -0.3252
     17 O          64.4278   87.5900   14.9421 O.2     1  UNL1       -0.2702
     18 H          64.9372   90.7592   13.5834 H       1  UNL1        0.1453
     19 H          65.6582   90.0809   14.9718 H       1  UNL1        0.1453
     20 C          64.2652   91.9927   11.9695 C.3     1  UNL1        0.2525
     21 O          63.1958   91.2138   12.6764 O.3     1  UNL1       -0.4712
     22 C          59.6522   90.2060    5.9728 C.ar    1  UNL1        0.0013
     23 C          58.4002   90.9364    5.5869 C.ar    1  UNL1        0.0013
     24 C          58.4365   91.9595    4.4905 C.ar    1  UNL1        0.0145
     25 C          59.7247   92.2521    3.7800 C.ar    1  UNL1        0.0479
     26 C          60.9767   91.5215    4.1660 C.ar    1  UNL1        0.0145
     27 C          60.9404   90.4985    5.2624 C.ar    1  UNL1        0.0013
     28 N          59.7610   93.2751    2.6837 N.pl3   1  UNL1       -0.3046
     29 C          59.3284   92.9033    1.2964 C.3     1  UNL1        0.1081
     30 C          59.3647   93.9263    0.1999 C.3     1  UNL1        0.0938
     31 N          59.8336   95.3211    0.4908 N.3     1  UNL1       -0.2711
     32 C          60.2663   95.6929    1.8782 C.3     1  UNL1        0.0938
     33 C          60.2300   94.6699    2.9745 C.3     1  UNL1        0.1081
     34 C          59.8699   96.3441   -0.6056 C.3     1  UNL1        0.0577
     35 C          58.5897   96.8556   -1.1968 C.3     1  UNL1        0.0173
     36 C          61.1864   96.8557   -1.1107 C.3     1  UNL1        0.0173
@<TRIPOS>BOND
     1    20    21    1
     2    21     8    1
     3     8     9   ar
     4     9    10   ar
     5    10     1    1
     6     1     2   ar
     7     2     3   ar
     8     3     4   ar
     9     4     5   ar
    10     5    22    1
    11    22    23   ar
    12    23    24   ar
    13    24    25   ar
    14    25    28    1
    15    28    29    1
    16    29    30    1
    17    30    31    1
    18    31    34    1
    19    34    35    1
    20    34    36    1
    21    31    32    1
    22    32    33    1
    23    25    26   ar
    24    26    27   ar
    25     5     6   ar
    26     6     7    1
    27    10    11   ar
    28    11    12   ar
    29    12    13    1
    30    12    14   ar
    31    14    15    1
    32    15    16   am
    33    15    17    2
    34    14     8   ar
    35     6     1   ar
    36    27    22   ar
    37    33    28    1
    38    16    18    1
    39    16    19    1
