@<TRIPOS>MOLECULE
*****
 60 66 0 0 0
SMALL
GASTEIGER

@<TRIPOS>ATOM
      1 N          61.3996   85.0485    7.5021 N.3     1  UNL1       -0.1862
      2 C          60.3940   85.7078    6.6054 C.3     1  UNL1        0.1775
      3 C          59.8067   87.0348    6.9852 C.2     1  UNL1        0.2452
      4 O          58.8011   87.6942    6.0885 O.2     1  UNL1       -0.2732
      5 N          60.2251   87.7025    8.2615 N.am    1  UNL1       -0.2541
      6 C          59.6378   89.0295    8.6413 C.3     1  UNL1        0.1577
      7 C          60.0562   89.6971    9.9177 C.2     1  UNL1        0.2445
      8 O          59.4689   91.0241   10.2974 O.2     1  UNL1       -0.2731
      9 N          61.0618   89.0378   10.8144 N.am    1  UNL1       -0.2705
     10 C          61.6491   87.7108   10.4346 C.3     1  UNL1        0.1359
     11 C          61.2307   87.0431    9.1582 C.3     1  UNL1        0.1908
     12 N          61.8179   85.7161    8.7784 N.am    1  UNL1       -0.1863
     13 C          62.8236   85.0568    9.6752 C.2     1  UNL1        0.3191
     14 O          63.2419   85.7244   10.9515 O.2     1  UNL1       -0.2512
     15 N          63.4108   83.7298    9.2954 N.am    1  UNL1       -0.2836
     16 H          63.1362   83.2916    8.4577 H       1  UNL1        0.1513
     17 C          61.9868   83.7215    7.1223 C.3     1  UNL1        0.1188
     18 C          61.9511   84.2086    4.5706 C.2     1  UNL1       -0.0034
     19 C          62.5670   83.5221    5.7536 C.2     1  UNL1       -0.0071
     20 C          58.6323   89.6888    7.7447 C.3     1  UNL1        0.0556
     21 C          59.0891   90.4347    6.5261 C.ar    1  UNL1       -0.0198
     22 C          60.5386   90.4249    6.1403 C.ar    1  UNL1       -0.0011
     23 C          60.9955   91.1708    4.9217 C.ar    1  UNL1        0.0363
     24 C          60.0028   91.9264    4.0889 C.ar    1  UNL1        0.1337
     25 O          60.4597   92.6723    2.8703 O.3     1  UNL1       -0.5055
     26 C          58.5533   91.9362    4.4746 C.ar    1  UNL1        0.0363
     27 C          58.0964   91.1903    5.6932 C.ar    1  UNL1       -0.0011
     28 H          61.3652   92.6662    2.6293 H       1  UNL1        0.2922
     29 C          61.4802   89.7054   12.0907 C.3     1  UNL1        0.1217
     30 C          62.7467   90.5079   12.1373 C.ar    1  UNL1        0.0135
     31 C          63.3205   91.0775   10.8739 C.ar    1  UNL1       -0.0012
     32 C          64.5869   91.8799   10.9204 C.ar    1  UNL1       -0.0002
     33 C          65.2795   92.1128   12.2303 C.ar    1  UNL1        0.0016
     34 C          64.7057   91.5432   13.4938 C.ar    1  UNL1        0.0214
     35 C          65.1623   91.6063   14.9212 C.ar    1  UNL1        0.0721
     36 C          64.1780   90.8429   15.7569 C.ar    1  UNL1        0.0805
     37 N          63.1132   90.3080   14.8459 N.ar    1  UNL1       -0.3241
     38 C          61.9299   89.4847   15.2608 C.3     1  UNL1        0.1305
     39 C          63.4393   90.7408   13.4473 C.ar    1  UNL1        0.0577
     40 C          66.3880   92.3095   15.4246 C.2     1  UNL1        0.2509
     41 O          66.9835   91.9249   16.7465 O.2     1  UNL1       -0.2698
     42 N          67.0181   93.3971   14.6060 N.am    1  UNL1       -0.2660
     43 C          68.2437   94.1002   15.1093 C.3     1  UNL1        0.1157
     44 C          66.4225   93.7815   13.2841 C.3     1  UNL1        0.1796
     45 C          67.1859   93.5333   12.0170 C.2     1  UNL1        0.2460
     46 O          68.2275   92.4550   11.9678 O.2     1  UNL1       -0.2730
     47 N          66.9079   94.3635   10.7990 N.am    1  UNL1       -0.2753
     48 C          67.6713   94.1153    9.5319 C.3     1  UNL1        0.1108
     49 C          67.3933   94.9455    8.3139 C.3     1  UNL1        0.0939
     50 N          66.3518   96.0239    8.3630 N.3     1  UNL1       -0.2686
     51 C          66.0736   96.8541    7.1450 C.3     1  UNL1        0.0897
     52 C          65.5883   96.2721    9.6301 C.3     1  UNL1        0.0939
     53 C          65.8664   95.4419   10.8481 C.3     1  UNL1        0.1108
     54 C          64.4164   83.0704   10.1921 C.3     1  UNL1        0.1177
     55 C          63.9644   82.3724   11.4404 C.ar    1  UNL1       -0.0025
     56 C          63.1481   81.1176   11.3444 C.ar    1  UNL1       -0.0026
     57 C          62.6960   80.4196   12.5928 C.ar    1  UNL1       -0.0003
     58 C          63.0603   80.9763   13.9371 C.ar    1  UNL1       -0.0000
     59 C          63.8766   82.2311   14.0332 C.ar    1  UNL1       -0.0003
     60 C          64.3287   82.9291   12.7848 C.ar    1  UNL1       -0.0026
@<TRIPOS>BOND
     1    18    19    2
     2    19    17    1
     3    17     1    1
     4     1     2    1
     5     2     3    1
     6     3     4    2
     7     3     5   am
     8     5     6    1
     9     6    20    1
    10    20    21    1
    11    21    22   ar
    12    22    23   ar
    13    23    24   ar
    14    24    25    1
    15    24    26   ar
    16    26    27   ar
    17     6     7    1
    18     7     8    2
    19     7     9   am
    20     9    29    1
    21    29    30    1
    22    30    31   ar
    23    31    32   ar
    24    32    33   ar
    25    33    34   ar
    26    34    35   ar
    27    35    40    1
    28    40    41    2
    29    40    42   am
    30    42    43    1
    31    42    44    1
    32    44    45    1
    33    45    46    2
    34    45    47   am
    35    47    48    1
    36    48    49    1
    37    49    50    1
    38    50    51    1
    39    50    52    1
    40    52    53    1
    41    35    36   ar
    42    36    37   ar
    43    37    38    1
    44    37    39   ar
    45     9    10    1
    46    11    10    1
    47    11    12    1
    48    12    13   am
    49    13    14    2
    50    13    15   am
    51    15    54    1
    52    54    55    1
    53    55    56   ar
    54    56    57   ar
    55    57    58   ar
    56    58    59   ar
    57    59    60   ar
    58    12     1    1
    59    60    55   ar
    60    11     5    1
    61    27    21   ar
    62    39    30   ar
    63    39    34   ar
    64    53    47    1
    65    25    28    1
    66    15    16    1
@<TRIPOS>MOLECULE
*****
 60 66 0 0 0
SMALL
GASTEIGER

@<TRIPOS>ATOM
      1 N          65.2962   89.4020   14.6904 N.3     1  UNL1       -0.1862
      2 C          65.4603   88.1599   15.5152 C.3     1  UNL1        0.1775
      3 C          64.7502   86.8987   15.1212 C.2     1  UNL1        0.2452
      4 O          64.9144   85.6566   15.9461 O.2     1  UNL1       -0.2732
      5 N          63.8761   86.8795   13.9024 N.am    1  UNL1       -0.2541
      6 C          63.1661   85.6183   13.5084 C.3     1  UNL1        0.1577
      7 C          62.2920   85.5992   12.2896 C.2     1  UNL1        0.2445
      8 O          61.5820   84.3379   11.8956 O.2     1  UNL1       -0.2731
      9 N          62.1279   86.8412   11.4647 N.am    1  UNL1       -0.2705
     10 C          62.8379   88.1025   11.8587 C.3     1  UNL1        0.1359
     11 C          63.7121   88.1216   13.0776 C.3     1  UNL1        0.1908
     12 N          64.4221   89.3828   13.4716 N.am    1  UNL1       -0.1863
     13 C          64.2579   90.6249   12.6467 C.2     1  UNL1        0.3191
     14 O          63.3838   90.6057   11.4279 O.2     1  UNL1       -0.2512
     15 N          64.9679   91.8861   13.0407 N.am    1  UNL1       -0.2836
     16 H          65.5416   91.8987   13.8407 H       1  UNL1        0.1513
     17 C          66.0062   90.6632   15.0844 C.3     1  UNL1        0.1188
     18 C          68.0403   92.2620   14.8481 C.2     1  UNL1       -0.0034
     19 C          67.3792   90.9485   14.5521 C.2     1  UNL1       -0.0071
     20 C          63.3302   84.3763   14.3332 C.3     1  UNL1        0.0556
     21 C          63.1439   83.0277   13.7034 C.ar    1  UNL1       -0.0198
     22 C          62.1268   82.0750   14.2581 C.ar    1  UNL1       -0.0011
     23 C          61.9405   80.7264   13.6284 C.ar    1  UNL1        0.0363
     24 C          62.7713   80.3305   12.4439 C.ar    1  UNL1        0.1337
     25 O          62.5850   78.9819   11.8141 O.3     1  UNL1       -0.5055
     26 C          63.7885   81.2833   11.8891 C.ar    1  UNL1        0.0363
     27 C          63.9748   82.6318   12.5189 C.ar    1  UNL1       -0.0011
     28 H          61.9496   78.3868   12.1607 H       1  UNL1        0.2922
     29 C          61.2538   86.8221   10.2459 C.3     1  UNL1        0.1217
     30 C          60.6162   88.0900    9.7602 C.ar    1  UNL1        0.0135
     31 C          60.4312   89.2443   10.7001 C.ar    1  UNL1       -0.0012
     32 C          59.7936   90.5122   10.2145 C.ar    1  UNL1       -0.0002
     33 C          59.3410   90.6258    8.7889 C.ar    1  UNL1        0.0016
     34 C          59.5260   89.4715    7.8490 C.ar    1  UNL1        0.0214
     35 C          59.1820   89.2919    6.4001 C.ar    1  UNL1        0.0721
     36 C          59.6070   87.9130    5.9903 C.ar    1  UNL1        0.0805
     37 N          60.2136   87.2404    7.1859 N.ar    1  UNL1       -0.3241
     38 C          60.7723   85.8489    7.2257 C.3     1  UNL1        0.1305
     39 C          60.1636   88.2036    8.3347 C.ar    1  UNL1        0.0577
     40 C          58.5278   90.3121    5.5162 C.2     1  UNL1        0.2509
     41 O          57.0358   90.3243    5.3616 O.2     1  UNL1       -0.2698
     42 N          59.3656   91.3202    4.7869 N.am    1  UNL1       -0.2660
     43 C          58.7115   92.3404    3.9030 C.3     1  UNL1        0.1157
     44 C          60.8576   91.3080    4.9415 C.3     1  UNL1        0.1796
     45 C          61.7372   91.2804    3.7268 C.2     1  UNL1        0.2460
     46 O          62.6815   90.1351    3.5104 O.2     1  UNL1       -0.2730
     47 N          61.6727   92.3981    2.7285 N.am    1  UNL1       -0.2753
     48 C          62.5523   92.3705    1.5138 C.3     1  UNL1        0.1108
     49 C          62.4878   93.4882    0.5155 C.3     1  UNL1        0.0939
     50 N          61.5436   94.6335    0.7319 N.3     1  UNL1       -0.2686
     51 C          61.4790   95.7512   -0.2664 C.3     1  UNL1        0.0897
     52 C          60.6639   94.6611    1.9466 C.3     1  UNL1        0.0939
     53 C          60.7285   93.5434    2.9449 C.3     1  UNL1        0.1108
     54 C          64.8038   93.1281   12.2159 C.3     1  UNL1        0.1177
     55 C          65.8522   93.5055   11.2116 C.ar    1  UNL1       -0.0025
     56 C          66.7908   92.4634   10.6797 C.ar    1  UNL1       -0.0026
     57 C          67.8392   92.8408    9.6754 C.ar    1  UNL1       -0.0003
     58 C          67.9489   94.2602    9.2031 C.ar    1  UNL1       -0.0000
     59 C          67.0102   95.3024    9.7350 C.ar    1  UNL1       -0.0003
     60 C          65.9619   94.9250   10.7393 C.ar    1  UNL1       -0.0026
@<TRIPOS>BOND
     1    18    19    2
     2    19    17    1
     3    17     1    1
     4     1     2    1
     5     2     3    1
     6     3     4    2
     7     3     5   am
     8     5     6    1
     9     6    20    1
    10    20    21    1
    11    21    22   ar
    12    22    23   ar
    13    23    24   ar
    14    24    25    1
    15    24    26   ar
    16    26    27   ar
    17     6     7    1
    18     7     8    2
    19     7     9   am
    20     9    29    1
    21    29    30    1
    22    30    31   ar
    23    31    32   ar
    24    32    33   ar
    25    33    34   ar
    26    34    35   ar
    27    35    40    1
    28    40    41    2
    29    40    42   am
    30    42    43    1
    31    42    44    1
    32    44    45    1
    33    45    46    2
    34    45    47   am
    35    47    48    1
    36    48    49    1
    37    49    50    1
    38    50    51    1
    39    50    52    1
    40    52    53    1
    41    35    36   ar
    42    36    37   ar
    43    37    38    1
    44    37    39   ar
    45     9    10    1
    46    11    10    1
    47    11    12    1
    48    12    13   am
    49    13    14    2
    50    13    15   am
    51    15    54    1
    52    54    55    1
    53    55    56   ar
    54    56    57   ar
    55    57    58   ar
    56    58    59   ar
    57    59    60   ar
    58    12     1    1
    59    60    55   ar
    60    11     5    1
    61    27    21   ar
    62    39    30   ar
    63    39    34   ar
    64    53    47    1
    65    25    28    1
    66    15    16    1
@<TRIPOS>MOLECULE
*****
 60 66 0 0 0
SMALL
GASTEIGER

@<TRIPOS>ATOM
      1 N          62.4264   84.0187    9.6568 N.3     1  UNL1       -0.1862
      2 C          61.6439   84.0598    8.3778 C.3     1  UNL1        0.1775
      3 C          60.9549   85.3252    7.9604 C.2     1  UNL1        0.2452
      4 O          60.1724   85.3663    6.6813 O.2     1  UNL1       -0.2732
      5 N          61.0484   86.5494    8.8220 N.am    1  UNL1       -0.2541
      6 C          60.3594   87.8147    8.4047 C.3     1  UNL1        0.1577
      7 C          60.4529   89.0390    9.2663 C.2     1  UNL1        0.2445
      8 O          59.7639   90.3043    8.8489 O.2     1  UNL1       -0.2731
      9 N          61.2355   88.9979   10.5454 N.am    1  UNL1       -0.2705
     10 C          61.9244   87.7325   10.9628 C.3     1  UNL1        0.1359
     11 C          61.8309   86.5083   10.1011 C.3     1  UNL1        0.1908
     12 N          62.5199   85.2429   10.5184 N.am    1  UNL1       -0.1863
     13 C          63.3024   85.2019   11.7975 C.2     1  UNL1        0.3191
     14 O          63.3959   86.4261   12.6592 O.2     1  UNL1       -0.2512
     15 N          63.9914   83.9365   12.2149 N.am    1  UNL1       -0.2836
     16 H          63.9300   83.1330   11.6494 H       1  UNL1        0.1513
     17 C          63.1154   82.7534   10.0742 C.3     1  UNL1        0.1188
     18 C          62.9900   80.9726   11.9618 C.2     1  UNL1       -0.0034
     19 C          62.3528   81.6917   10.8099 C.2     1  UNL1       -0.0071
     20 C          59.5769   87.8559    7.1256 C.3     1  UNL1        0.0556
     21 C          59.4537   89.1415    6.3628 C.ar    1  UNL1       -0.0198
     22 C          58.1152   89.8030    6.2191 C.ar    1  UNL1       -0.0011
     23 C          57.9921   91.0887    5.4562 C.ar    1  UNL1        0.0363
     24 C          59.2074   91.7127    4.8370 C.ar    1  UNL1        0.1337
     25 O          59.0842   92.9984    4.0741 O.3     1  UNL1       -0.5055
     26 C          60.5460   91.0512    4.9807 C.ar    1  UNL1        0.0363
     27 C          60.6692   89.7656    5.7435 C.ar    1  UNL1       -0.0011
     28 H          58.2481   93.4116    3.9843 H       1  UNL1        0.2922
     29 C          61.3290   90.2221   11.4071 C.3     1  UNL1        0.1217
     30 C          62.6157   90.9893   11.4831 C.ar    1  UNL1        0.0135
     31 C          63.0730   91.8049   10.3101 C.ar    1  UNL1       -0.0012
     32 C          64.3597   92.5721   10.3861 C.ar    1  UNL1       -0.0002
     33 C          65.1891   92.5237   11.6349 C.ar    1  UNL1        0.0016
     34 C          64.7318   91.7081   12.8078 C.ar    1  UNL1        0.0214
     35 C          65.3338   91.4708   14.1611 C.ar    1  UNL1        0.0721
     36 C          64.4192   90.5569   14.9215 C.ar    1  UNL1        0.0805
     37 N          63.2519   90.2295   14.0382 N.ar    1  UNL1       -0.3241
     38 C          62.0946   89.3457   14.3980 C.3     1  UNL1        0.1305
     39 C          63.4452   90.9409   12.7319 C.ar    1  UNL1        0.0577
     40 C          66.6240   92.0463   14.6654 C.2     1  UNL1        0.2509
     41 O          67.5941   91.1759   15.4079 O.2     1  UNL1       -0.2698
     42 N          66.9441   93.4923   14.4272 N.am    1  UNL1       -0.2660
     43 C          68.2342   94.0679   14.9314 C.3     1  UNL1        0.1157
     44 C          65.9740   94.3627   13.6846 C.3     1  UNL1        0.1796
     45 C          66.4001   95.0544   12.4237 C.2     1  UNL1        0.2460
     46 O          66.0970   96.5104   12.2277 O.2     1  UNL1       -0.2730
     47 N          67.1294   94.2902   11.3588 N.am    1  UNL1       -0.2753
     48 C          67.5555   94.9819   10.0978 C.3     1  UNL1        0.1108
     49 C          68.2848   94.2178    9.0329 C.3     1  UNL1        0.0939
     50 N          68.5880   92.7618    9.2288 N.3     1  UNL1       -0.2686
     51 C          69.3173   91.9976    8.1639 C.3     1  UNL1        0.0897
     52 C          68.1619   92.0701   10.4897 C.3     1  UNL1        0.0939
     53 C          67.4326   92.8343   11.5547 C.3     1  UNL1        0.1108
     54 C          64.7739   83.8954   13.4939 C.3     1  UNL1        0.1177
     55 C          64.2560   84.5995   14.7130 C.ar    1  UNL1       -0.0025
     56 C          63.1804   83.9661   15.5447 C.ar    1  UNL1       -0.0026
     57 C          62.6625   84.6702   16.7638 C.ar    1  UNL1       -0.0003
     58 C          63.2203   86.0076   17.1511 C.ar    1  UNL1       -0.0000
     59 C          64.2960   86.6411   16.3193 C.ar    1  UNL1       -0.0003
     60 C          64.8139   85.9370   15.1003 C.ar    1  UNL1       -0.0026
@<TRIPOS>BOND
     1    18    19    2
     2    19    17    1
     3    17     1    1
     4     1     2    1
     5     2     3    1
     6     3     4    2
     7     3     5   am
     8     5     6    1
     9     6    20    1
    10    20    21    1
    11    21    22   ar
    12    22    23   ar
    13    23    24   ar
    14    24    25    1
    15    24    26   ar
    16    26    27   ar
    17     6     7    1
    18     7     8    2
    19     7     9   am
    20     9    29    1
    21    29    30    1
    22    30    31   ar
    23    31    32   ar
    24    32    33   ar
    25    33    34   ar
    26    34    35   ar
    27    35    40    1
    28    40    41    2
    29    40    42   am
    30    42    43    1
    31    42    44    1
    32    44    45    1
    33    45    46    2
    34    45    47   am
    35    47    48    1
    36    48    49    1
    37    49    50    1
    38    50    51    1
    39    50    52    1
    40    52    53    1
    41    35    36   ar
    42    36    37   ar
    43    37    38    1
    44    37    39   ar
    45     9    10    1
    46    11    10    1
    47    11    12    1
    48    12    13   am
    49    13    14    2
    50    13    15   am
    51    15    54    1
    52    54    55    1
    53    55    56   ar
    54    56    57   ar
    55    57    58   ar
    56    58    59   ar
    57    59    60   ar
    58    12     1    1
    59    60    55   ar
    60    11     5    1
    61    27    21   ar
    62    39    30   ar
    63    39    34   ar
    64    53    47    1
    65    25    28    1
    66    15    16    1
