@<TRIPOS>MOLECULE
*****
 54 62 0 0 0
SMALL
GASTEIGER

@<TRIPOS>ATOM
      1 C          63.9872   94.8643   -4.8493 C.3     1  UNL1        0.1445
      2 C          62.5250   95.1318   -5.0507 C.3     1  UNL1        0.0322
      3 C          61.5460   94.8056   -3.9620 C.3     1  UNL1        0.0049
      4 C          60.0838   95.0732   -4.1635 C.3     1  UNL1        0.0002
      5 C          62.0291   94.2120   -2.6720 C.3     1  UNL1        0.0298
      6 C          63.4913   93.9445   -2.4706 C.3     1  UNL1        0.1418
      7 O          64.4703   94.2707   -3.5592 O.3     1  UNL1       -0.3537
      8 C          63.6708   93.3568   -1.1023 C.3     1  UNL1        0.1373
      9 O          64.9729   92.9383   -0.4863 O.3     1  UNL1       -0.3820
     10 C          62.3196   93.2610   -0.4580 C.3     1  UNL1        0.0272
     11 C          63.4427   92.7639    0.4031 C.3     1  UNL1        0.0025
     12 C          61.8820   92.7609    0.8867 C.3     1  UNL1        0.0023
     13 C          62.8966   92.2323    1.8569 C.3     1  UNL1        0.0001
     14 C          62.4590   91.7321    3.2016 C.3     1  UNL1        0.0001
     15 C          61.0068   91.7605    3.5762 C.3     1  UNL1        0.0023
     16 C          60.5692   91.2603    4.9209 C.3     1  UNL1        0.0251
     17 C          60.6451   90.6803    6.3022 C.3     1  UNL1        0.0024
     18 C          62.0478   91.0305    5.0260 C.3     1  UNL1        0.0024
     19 C          59.1169   91.2887    5.2955 C.3     1  UNL1        0.1177
     20 C          58.1024   91.8172    4.3254 C.3     1  UNL1        0.0296
     21 C          58.5400   92.3174    2.9806 C.3     1  UNL1        0.0025
     22 C          59.9921   92.2891    2.6060 C.3     1  UNL1        0.0002
     23 C          58.9776   92.8176    1.6359 C.3     1  UNL1        0.0000
     24 C          60.4297   92.7892    1.2613 C.3     1  UNL1        0.0001
     25 C          59.4152   93.3178    0.2911 C.3     1  UNL1        0.0000
     26 C          59.8528   93.8180   -1.0536 C.3     1  UNL1        0.0002
     27 C          61.3049   93.7896   -1.4282 C.3     1  UNL1        0.0046
     28 C          60.4100   94.3437   -2.4968 C.3     1  UNL1        0.0002
     29 H          64.8120   92.5905    0.4048 H       1  UNL1        0.2104
     30 C          64.9662   95.1905   -5.9379 C.3     1  UNL1        0.1664
     31 C          66.1764   96.0229   -5.6336 C.3     1  UNL1        0.1156
     32 C          65.4642   96.6297   -4.4611 C.3     1  UNL1        0.0319
     33 C          66.8886   95.4161   -6.8060 C.3     1  UNL1        0.0319
     34 O          67.3866   96.8553   -5.3292 O.3     1  UNL1       -0.3843
     35 H          67.2133   97.4046   -4.5488 H       1  UNL1        0.2103
     36 O          64.7351   94.6843   -7.3309 O.3     1  UNL1       -0.3514
     37 C          65.1067   92.1764   -6.7630 C.3     1  UNL1        0.0346
     38 C          64.4072   93.2384   -7.5586 C.3     1  UNL1        0.1423
     39 O          58.6793   90.7885    6.6402 O.3     1  UNL1       -0.3320
     40 C          59.2234   89.4963    7.1732 C.3     1  UNL1        0.2518
     41 C          59.8698   89.4559    8.5263 C.3     1  UNL1        0.1343
     42 N          60.4138   88.1637    9.0593 N.3     1  UNL1       -0.2663
     43 C          60.3116   86.9118    8.2393 C.3     1  UNL1        0.1048
     44 C          59.6653   86.9522    6.8863 C.3     1  UNL1        0.1621
     45 O          59.1211   88.2444    6.3533 O.3     1  UNL1       -0.3280
     46 C          61.0602   88.1233   10.4122 C.3     1  UNL1        0.0751
     47 C          62.0631   89.1707   10.7958 C.3     1  UNL1        0.0479
     48 C          62.7989   90.2534   10.0636 C.3     1  UNL1        0.0749
     49 N          63.4816   90.6518   11.3383 N.3     1  UNL1       -0.2695
     50 C          62.7458   89.5691   12.0707 C.3     1  UNL1        0.0749
     51 C          64.4845   91.6991   11.7219 C.3     1  UNL1        0.1172
     52 C          65.1847   92.0827   12.9919 C.3     1  UNL1        0.1606
     53 O          65.9029   93.1803   12.2644 O.3     1  UNL1       -0.3507
     54 C          65.2029   92.7968   10.9945 C.3     1  UNL1        0.1606
@<TRIPOS>BOND
     1    37    38    1
     2    38    36    1
     3    30    36    1
     4    30     1    1
     5     1     2    1
     6     2     3    1
     7     3     4    1
     8     5     3    1
     9     5     6    1
    10     6     7    1
    11     6     8    1
    12     8     9    1
    13     8    10    1
    14    10    11    1
    15    10    12    1
    16    12    13    1
    17    13    14    1
    18    15    14    1
    19    15    16    1
    20    16    17    1
    21    16    18    1
    22    16    19    1
    23    19    39    1
    24    40    39    1
    25    40    41    1
    26    41    42    1
    27    42    46    1
    28    46    47    1
    29    47    48    1
    30    48    49    1
    31    49    51    1
    32    51    52    1
    33    52    53    1
    34    53    54    1
    35    49    50    1
    36    42    43    1
    37    43    44    1
    38    44    45    1
    39    19    20    1
    40    20    21    1
    41    22    21    1
    42    22    23    1
    43    24    23    1
    44    24    25    1
    45    25    26    1
    46    26    27    1
    47    27    28    1
    48    30    31    1
    49    31    32    1
    50    31    33    1
    51    31    34    1
    52     7     1    1
    53    27    10    1
    54    27     5    1
    55    24    12    1
    56    22    15    1
    57    45    40    1
    58    24    22    1
    59    50    47    1
    60    54    51    1
    61     9    29    1
    62    34    35    1
@<TRIPOS>MOLECULE
*****
 54 62 0 0 0
SMALL
GASTEIGER

@<TRIPOS>ATOM
      1 C          63.8135   94.8552   -4.8391 C.3     1  UNL1        0.1445
      2 C          62.3483   95.1317   -5.0026 C.3     1  UNL1        0.0322
      3 C          61.3938   94.7980   -3.8945 C.3     1  UNL1        0.0049
      4 C          59.9286   95.0745   -4.0581 C.3     1  UNL1        0.0002
      5 C          61.9046   94.1879   -2.6229 C.3     1  UNL1        0.0298
      6 C          63.3699   93.9114   -2.4594 C.3     1  UNL1        0.1418
      7 O          64.3243   94.2451   -3.5674 O.3     1  UNL1       -0.3537
      8 C          63.5791   93.3078   -1.1023 C.3     1  UNL1        0.1373
      9 O          64.8934   92.8765   -0.5222 O.3     1  UNL1       -0.3820
     10 C          62.2431   93.2112   -0.4270 C.3     1  UNL1        0.0272
     11 C          63.3840   92.6993    0.4015 C.3     1  UNL1        0.0025
     12 C          61.8353   92.6982    0.9222 C.3     1  UNL1        0.0023
     13 C          62.8701   92.1543    1.8620 C.3     1  UNL1        0.0001
     14 C          62.4622   91.6412    3.2113 C.3     1  UNL1        0.0001
     15 C          61.0195   91.6722    3.6207 C.3     1  UNL1        0.0023
     16 C          60.6116   91.1591    4.9699 C.3     1  UNL1        0.0251
     17 C          60.7175   90.5636    6.3425 C.3     1  UNL1        0.0024
     18 C          62.0911   90.9214    5.0372 C.3     1  UNL1        0.0024
     19 C          59.1688   91.1901    5.3793 C.3     1  UNL1        0.1177
     20 C          58.1340   91.7340    4.4395 C.3     1  UNL1        0.0296
     21 C          58.5419   92.2470    3.0903 C.3     1  UNL1        0.0025
     22 C          59.9846   92.2161    2.6809 C.3     1  UNL1        0.0002
     23 C          58.9498   92.7600    1.7410 C.3     1  UNL1        0.0000
     24 C          60.3925   92.7291    1.3316 C.3     1  UNL1        0.0001
     25 C          59.3577   93.2730    0.3918 C.3     1  UNL1        0.0000
     26 C          59.7656   93.7860   -0.9574 C.3     1  UNL1        0.0002
     27 C          61.2083   93.7551   -1.3669 C.3     1  UNL1        0.0046
     28 C          60.2908   94.3251   -2.4077 C.3     1  UNL1        0.0002
     29 H          64.7521   92.5197    0.3687 H       1  UNL1        0.2104
     30 C          64.7679   95.1889   -5.9471 C.3     1  UNL1        0.1664
     31 C          65.9837   96.0208   -5.6646 C.3     1  UNL1        0.1156
     32 C          65.2511   96.7147   -4.5548 C.3     1  UNL1        0.0319
     33 C          66.7164   95.3268   -6.7745 C.3     1  UNL1        0.0319
     34 O          67.1996   96.8526   -5.3822 O.3     1  UNL1       -0.3843
     35 H          67.0150   97.4550   -4.6446 H       1  UNL1        0.2103
     36 O          64.5065   94.6907   -7.3376 O.3     1  UNL1       -0.3514
     37 C          64.9221   92.1277   -7.2489 C.3     1  UNL1        0.0346
     38 C          64.0211   93.2878   -7.5527 C.3     1  UNL1        0.1423
     39 O          58.7610   90.6771    6.7286 O.3     1  UNL1       -0.3320
     40 C          59.2703   89.3518    7.2125 C.3     1  UNL1        0.2518
     41 C          60.2118   89.2905    8.3787 C.3     1  UNL1        0.1343
     42 N          60.7211   87.9653    8.8626 N.3     1  UNL1       -0.2663
     43 C          60.2890   86.7012    8.1803 C.3     1  UNL1        0.1048
     44 C          59.3476   86.7624    7.0142 C.3     1  UNL1        0.1621
     45 O          58.8382   88.0877    6.5302 O.3     1  UNL1       -0.3280
     46 C          61.6625   87.9040   10.0287 C.3     1  UNL1        0.0751
     47 C          62.0681   86.5761   10.5963 C.3     1  UNL1        0.0479
     48 C          62.6814   85.3265   10.0376 C.3     1  UNL1        0.0749
     49 N          62.6416   84.6982   11.3990 N.3     1  UNL1       -0.2695
     50 C          62.0283   85.9478   11.9578 C.3     1  UNL1        0.0749
     51 C          63.0472   83.3703   11.9666 C.3     1  UNL1        0.1172
     52 C          64.0582   82.9122   12.9756 C.3     1  UNL1        0.1606
     53 O          63.6207   81.4924   12.7693 O.3     1  UNL1       -0.3507
     54 C          62.6097   81.9503   11.7603 C.3     1  UNL1        0.1606
@<TRIPOS>BOND
     1    37    38    1
     2    38    36    1
     3    30    36    1
     4    30     1    1
     5     1     2    1
     6     2     3    1
     7     3     4    1
     8     5     3    1
     9     5     6    1
    10     6     7    1
    11     6     8    1
    12     8     9    1
    13     8    10    1
    14    10    11    1
    15    10    12    1
    16    12    13    1
    17    13    14    1
    18    15    14    1
    19    15    16    1
    20    16    17    1
    21    16    18    1
    22    16    19    1
    23    19    39    1
    24    40    39    1
    25    40    41    1
    26    41    42    1
    27    42    46    1
    28    46    47    1
    29    47    48    1
    30    48    49    1
    31    49    51    1
    32    51    52    1
    33    52    53    1
    34    53    54    1
    35    49    50    1
    36    42    43    1
    37    43    44    1
    38    44    45    1
    39    19    20    1
    40    20    21    1
    41    22    21    1
    42    22    23    1
    43    24    23    1
    44    24    25    1
    45    25    26    1
    46    26    27    1
    47    27    28    1
    48    30    31    1
    49    31    32    1
    50    31    33    1
    51    31    34    1
    52     7     1    1
    53    27    10    1
    54    27     5    1
    55    24    12    1
    56    22    15    1
    57    45    40    1
    58    24    22    1
    59    50    47    1
    60    54    51    1
    61     9    29    1
    62    34    35    1
