@<TRIPOS>MOLECULE
*****
 27 29 0 0 0
SMALL
GASTEIGER

@<TRIPOS>ATOM
      1 C          63.5613   90.9184   11.4925 C.ar    1  UNL1        0.0017
      2 C          63.9016   90.5666   12.9104 C.ar    1  UNL1        0.0013
      3 C          64.9735   91.3256   13.6349 C.ar    1  UNL1        0.0142
      4 C          65.7052   92.4364   12.9415 C.ar    1  UNL1        0.0459
      5 N          66.7771   93.1954   13.6659 N.pl3   1  UNL1       -0.3569
      6 C          65.3649   92.7881   11.5235 C.ar    1  UNL1        0.0664
      7 C          64.2930   92.0291   10.7991 C.ar    1  UNL1        0.0058
      8 H          67.0004   92.9646   14.5965 H       1  UNL1        0.1424
      9 H          67.2573   93.9245   13.2107 H       1  UNL1        0.1424
     10 C          61.7367   86.7442    8.7228 C.ar    1  UNL1        0.0092
     11 C          60.3600   86.4979    8.1807 C.ar    1  UNL1        0.1360
     12 CL         59.9203   85.2910    7.4061 Cl      1  UNL1       -0.0616
     13 N          59.5002   87.6705    8.5492 N.ar    1  UNL1       -0.2174
     14 C          60.3455   88.6414    9.3191 C.ar    1  UNL1        0.1412
     15 N          60.0351   89.9728    9.9362 N.ar    1  UNL1       -0.3374
     16 C          61.1070   90.7318   10.6607 C.ar    1  UNL1        0.0734
     17 C          62.4893   90.1593   10.7680 C.ar    1  UNL1        0.0171
     18 C          62.7997   88.8279   10.1508 C.ar    1  UNL1        0.0042
     19 C          61.7278   88.0690    9.4264 C.ar    1  UNL1        0.0323
     20 H          59.1279   90.3486    9.8658 H       1  UNL1        0.1674
     21 C          63.1425   84.7410    9.5954 C.3     1  UNL1        0.0051
     22 C          62.9155   85.8268    8.5855 C.3     1  UNL1        0.0289
     23 C          66.0965   93.8989   10.8300 C.2     1  UNL1        0.2503
     24 O          65.6352   95.3170   10.9925 O.2     1  UNL1       -0.2699
     25 N          67.2894   93.5917    9.9742 N.am    1  UNL1       -0.2725
     26 C          68.0211   94.7024    9.2807 C.3     1  UNL1        0.1152
     27 C          67.7507   92.1736    9.8117 C.3     1  UNL1        0.1152
@<TRIPOS>BOND
     1    21    22    1
     2    22    10    1
     3    10    11   ar
     4    11    12    1
     5    11    13   ar
     6    13    14   ar
     7    14    15   ar
     8    15    16   ar
     9    16    17   ar
    10    17     1    1
    11     1     2   ar
    12     2     3   ar
    13     3     4   ar
    14     4     5    1
    15     4     6   ar
    16     6    23    1
    17    23    24    2
    18    23    25   am
    19    25    26    1
    20    25    27    1
    21     6     7   ar
    22    17    18   ar
    23    18    19   ar
    24    19    10   ar
    25    19    14    1
    26     7     1   ar
    27    15    20    1
    28     5     8    1
    29     5     9    1
@<TRIPOS>MOLECULE
*****
 27 29 0 0 0
SMALL
GASTEIGER

@<TRIPOS>ATOM
      1 C          64.0510   88.3463   13.7722 C.ar    1  UNL1        0.0017
      2 C          63.4707   88.7679   12.4549 C.ar    1  UNL1        0.0013
      3 C          63.5787   90.1966   12.0105 C.ar    1  UNL1        0.0142
      4 C          64.2670   91.2035   12.8836 C.ar    1  UNL1        0.0459
      5 N          64.3749   92.6321   12.4393 N.pl3   1  UNL1       -0.3569
      6 C          64.8473   90.7819   14.2010 C.ar    1  UNL1        0.0664
      7 C          64.7394   89.3533   14.6453 C.ar    1  UNL1        0.0058
      8 H          63.9940   92.9089   11.5746 H       1  UNL1        0.1424
      9 H          64.8267   93.2930   13.0123 H       1  UNL1        0.1424
     10 C          63.2340   83.1488   12.9109 C.ar    1  UNL1        0.0092
     11 C          63.2554   82.0131   13.8905 C.ar    1  UNL1        0.1360
     12 CL         63.0143   80.5677   13.5701 Cl      1  UNL1       -0.0616
     13 N          63.5603   82.5766   15.2468 N.ar    1  UNL1       -0.2174
     14 C          63.7272   84.0606   15.1054 C.ar    1  UNL1        0.1412
     15 N          64.0368   85.1355   16.1047 N.ar    1  UNL1       -0.3374
     16 C          64.1448   86.5640   15.6603 C.ar    1  UNL1        0.0734
     17 C          63.9431   86.9177   14.2166 C.ar    1  UNL1        0.0171
     18 C          63.6335   85.8428   13.2173 C.ar    1  UNL1        0.0042
     19 C          63.5256   84.4142   13.6617 C.ar    1  UNL1        0.0323
     20 H          64.1692   84.9034   17.0523 H       1  UNL1        0.1674
     21 C          64.1130   82.9630   10.4730 C.3     1  UNL1        0.0051
     22 C          62.9677   83.0385   11.4388 C.3     1  UNL1        0.0289
     23 C          65.5356   91.7889   15.0740 C.2     1  UNL1        0.2503
     24 O          64.8276   92.3531   16.2700 O.2     1  UNL1       -0.2699
     25 N          66.9319   92.2317   14.7511 N.am    1  UNL1       -0.2725
     26 C          67.6202   93.2387   15.6241 C.3     1  UNL1        0.1152
     27 C          67.6399   91.6674   13.5550 C.3     1  UNL1        0.1152
@<TRIPOS>BOND
     1    21    22    1
     2    22    10    1
     3    10    11   ar
     4    11    12    1
     5    11    13   ar
     6    13    14   ar
     7    14    15   ar
     8    15    16   ar
     9    16    17   ar
    10    17     1    1
    11     1     2   ar
    12     2     3   ar
    13     3     4   ar
    14     4     5    1
    15     4     6   ar
    16     6    23    1
    17    23    24    2
    18    23    25   am
    19    25    26    1
    20    25    27    1
    21     6     7   ar
    22    17    18   ar
    23    18    19   ar
    24    19    10   ar
    25    19    14    1
    26     7     1   ar
    27    15    20    1
    28     5     8    1
    29     5     9    1
@<TRIPOS>MOLECULE
*****
 27 29 0 0 0
SMALL
GASTEIGER

@<TRIPOS>ATOM
      1 C          63.9166   87.6600   15.1432 C.ar    1  UNL1        0.0017
      2 C          63.1987   88.0230   16.4092 C.ar    1  UNL1        0.0013
      3 C          63.1521   89.4524   16.8616 C.ar    1  UNL1        0.0142
      4 C          63.8236   90.5188   16.0480 C.ar    1  UNL1        0.0459
      5 N          63.7771   91.9482   16.5004 N.pl3   1  UNL1       -0.3569
      6 C          64.5415   90.1557   14.7820 C.ar    1  UNL1        0.0664
      7 C          64.5880   88.7264   14.3296 C.ar    1  UNL1        0.0058
      8 H          63.3059   92.1864   17.3313 H       1  UNL1        0.1424
      9 H          64.2177   92.6481   15.9664 H       1  UNL1        0.1424
     10 C          63.3311   83.8022   11.5102 C.ar    1  UNL1        0.0092
     11 C          63.5589   82.3265   11.6529 C.ar    1  UNL1        0.1360
     12 CL         63.3714   81.2974   10.5777 Cl      1  UNL1       -0.0616
     13 N          64.0070   82.0605   13.0594 N.ar    1  UNL1       -0.2174
     14 C          64.0562   83.3718   13.7861 C.ar    1  UNL1        0.1412
     15 N          64.4274   83.7247   15.1959 N.ar    1  UNL1       -0.3374
     16 C          64.3808   85.1541   15.6483 C.ar    1  UNL1        0.0734
     17 C          63.9631   86.2305   14.6908 C.ar    1  UNL1        0.0171
     18 C          63.5919   85.8776   13.2810 C.ar    1  UNL1        0.0042
     19 C          63.6384   84.4482   12.8286 C.ar    1  UNL1        0.0323
     20 H          64.7016   83.0182   15.8243 H       1  UNL1        0.1674
     21 C          61.8059   85.5562   10.3494 C.3     1  UNL1        0.0051
     22 C          62.8759   84.5080   10.2674 C.3     1  UNL1        0.0289
     23 C          65.2129   91.2221   13.9683 C.2     1  UNL1        0.2503
     24 O          66.4373   91.9092   14.4965 O.2     1  UNL1       -0.2699
     25 N          64.6601   91.6015   12.6266 N.am    1  UNL1       -0.2725
     26 C          65.3315   92.6678   11.8129 C.3     1  UNL1        0.1152
     27 C          63.4357   90.9144   12.0983 C.3     1  UNL1        0.1152
@<TRIPOS>BOND
     1    21    22    1
     2    22    10    1
     3    10    11   ar
     4    11    12    1
     5    11    13   ar
     6    13    14   ar
     7    14    15   ar
     8    15    16   ar
     9    16    17   ar
    10    17     1    1
    11     1     2   ar
    12     2     3   ar
    13     3     4   ar
    14     4     5    1
    15     4     6   ar
    16     6    23    1
    17    23    24    2
    18    23    25   am
    19    25    26    1
    20    25    27    1
    21     6     7   ar
    22    17    18   ar
    23    18    19   ar
    24    19    10   ar
    25    19    14    1
    26     7     1   ar
    27    15    20    1
    28     5     8    1
    29     5     9    1
@<TRIPOS>MOLECULE
*****
 27 29 0 0 0
SMALL
GASTEIGER

@<TRIPOS>ATOM
      1 C          64.0412   90.7599   12.0494 C.ar    1  UNL1        0.0017
      2 C          64.4052   90.8628   13.5009 C.ar    1  UNL1        0.0013
      3 C          65.2861   91.9801   13.9759 C.ar    1  UNL1        0.0142
      4 C          65.8029   92.9947   12.9994 C.ar    1  UNL1        0.0459
      5 N          66.6837   94.1120   13.4744 N.pl3   1  UNL1       -0.3569
      6 C          65.4389   92.8918   11.5478 C.ar    1  UNL1        0.0664
      7 C          64.5581   91.7745   11.0728 C.ar    1  UNL1        0.0058
      8 H          66.9226   94.1795   14.4270 H       1  UNL1        0.1424
      9 H          67.0229   94.7779   12.8334 H       1  UNL1        0.1424
     10 C          60.3672   88.6505    8.8127 C.ar    1  UNL1        0.0092
     11 C          59.7856   87.2679    8.8163 C.ar    1  UNL1        0.1360
     12 CL         58.7486   86.7451    7.8670 Cl      1  UNL1       -0.0616
     13 N          60.4232   86.4999    9.9360 N.ar    1  UNL1       -0.2174
     14 C          61.3988   87.4078   10.6243 C.ar    1  UNL1        0.1412
     15 N          62.3142   87.1960   11.7936 N.ar    1  UNL1       -0.3374
     16 C          63.1950   88.3133   12.2686 C.ar    1  UNL1        0.0734
     17 C          63.1604   89.6425   11.5743 C.ar    1  UNL1        0.0171
     18 C          62.2450   89.8544   10.4051 C.ar    1  UNL1        0.0042
     19 C          61.3642   88.7370    9.9301 C.ar    1  UNL1        0.0323
     20 H          62.3369   86.3235   12.2492 H       1  UNL1        0.1674
     21 C          59.3520   89.4310    6.5521 C.3     1  UNL1        0.0051
     22 C          60.0139   89.7532    7.8591 C.3     1  UNL1        0.0289
     23 C          65.9557   93.9063   10.5713 C.2     1  UNL1        0.2503
     24 O          65.2466   95.2179   10.4065 O.2     1  UNL1       -0.2699
     25 N          67.1816   93.6094    9.7595 N.am    1  UNL1       -0.2725
     26 C          67.6985   94.6239    8.7830 C.3     1  UNL1        0.1152
     27 C          67.8907   92.2978    9.9243 C.3     1  UNL1        0.1152
@<TRIPOS>BOND
     1    21    22    1
     2    22    10    1
     3    10    11   ar
     4    11    12    1
     5    11    13   ar
     6    13    14   ar
     7    14    15   ar
     8    15    16   ar
     9    16    17   ar
    10    17     1    1
    11     1     2   ar
    12     2     3   ar
    13     3     4   ar
    14     4     5    1
    15     4     6   ar
    16     6    23    1
    17    23    24    2
    18    23    25   am
    19    25    26    1
    20    25    27    1
    21     6     7   ar
    22    17    18   ar
    23    18    19   ar
    24    19    10   ar
    25    19    14    1
    26     7     1   ar
    27    15    20    1
    28     5     8    1
    29     5     9    1
@<TRIPOS>MOLECULE
*****
 27 29 0 0 0
SMALL
GASTEIGER

@<TRIPOS>ATOM
      1 C          63.0462   86.1867   12.7202 C.ar    1  UNL1        0.0017
      2 C          64.0215   86.6232   13.7730 C.ar    1  UNL1        0.0013
      3 C          64.5942   85.6181   14.7278 C.ar    1  UNL1        0.0142
      4 C          64.1917   84.1764   14.6298 C.ar    1  UNL1        0.0459
      5 N          64.7644   83.1713   15.5846 N.pl3   1  UNL1       -0.3569
      6 C          63.2164   83.7399   13.5770 C.ar    1  UNL1        0.0664
      7 C          62.6437   84.7451   12.6222 C.ar    1  UNL1        0.0058
      8 H          65.4045   83.4577   16.2756 H       1  UNL1        0.1424
      9 H          64.5002   82.2250   15.5203 H       1  UNL1        0.1424
     10 C          60.2040   87.5889    8.4331 C.ar    1  UNL1        0.0092
     11 C          59.9404   88.9579    7.8796 C.ar    1  UNL1        0.1360
     12 CL         59.1252   89.2743    6.6608 Cl      1  UNL1       -0.0616
     13 N          60.6351   89.9550    8.7589 N.ar    1  UNL1       -0.2174
     14 C          61.3281   89.2022    9.8558 C.ar    1  UNL1        0.1412
     15 N          62.1672   89.6594   11.0120 N.ar    1  UNL1       -0.3374
     16 C          62.7399   88.6542   11.9667 C.ar    1  UNL1        0.0734
     17 C          62.4735   87.1919   11.7654 C.ar    1  UNL1        0.0171
     18 C          61.6343   86.7347   10.6092 C.ar    1  UNL1        0.0042
     19 C          61.0616   87.7399    9.6544 C.ar    1  UNL1        0.0323
     20 H          62.3421   90.6192   11.1441 H       1  UNL1        0.1674
     21 C          60.6560   85.3295    7.2326 C.3     1  UNL1        0.0051
     22 C          59.6987   86.2959    7.8650 C.3     1  UNL1        0.0289
     23 C          62.8139   82.2983   13.4790 C.2     1  UNL1        0.2503
     24 O          62.1173   81.6342   14.6296 O.2     1  UNL1       -0.2699
     25 N          63.1080   81.5207   12.2305 N.am    1  UNL1       -0.2725
     26 C          62.7054   80.0790   12.1325 C.3     1  UNL1        0.1152
     27 C          63.8046   82.1847   11.0799 C.3     1  UNL1        0.1152
@<TRIPOS>BOND
     1    21    22    1
     2    22    10    1
     3    10    11   ar
     4    11    12    1
     5    11    13   ar
     6    13    14   ar
     7    14    15   ar
     8    15    16   ar
     9    16    17   ar
    10    17     1    1
    11     1     2   ar
    12     2     3   ar
    13     3     4   ar
    14     4     5    1
    15     4     6   ar
    16     6    23    1
    17    23    24    2
    18    23    25   am
    19    25    26    1
    20    25    27    1
    21     6     7   ar
    22    17    18   ar
    23    18    19   ar
    24    19    10   ar
    25    19    14    1
    26     7     1   ar
    27    15    20    1
    28     5     8    1
    29     5     9    1
@<TRIPOS>MOLECULE
*****
 27 29 0 0 0
SMALL
GASTEIGER

@<TRIPOS>ATOM
      1 C          64.2463   89.3795   15.2525 C.ar    1  UNL1        0.0017
      2 C          63.4202   89.4380   16.5032 C.ar    1  UNL1        0.0013
      3 C          62.8418   88.1796   17.0795 C.ar    1  UNL1        0.0142
      4 C          63.0896   86.8628   16.4052 C.ar    1  UNL1        0.0459
      5 N          62.5113   85.6046   16.9815 N.pl3   1  UNL1       -0.3569
      6 C          63.9157   86.8044   15.1546 C.ar    1  UNL1        0.0664
      7 C          64.4941   88.0627   14.5782 C.ar    1  UNL1        0.0058
      8 H          61.9691   85.6429   17.8024 H       1  UNL1        0.1424
      9 H          62.6739   84.7403   16.5390 H       1  UNL1        0.1424
     10 C          65.2326   92.7592   11.2490 C.ar    1  UNL1        0.0092
     11 C          65.9750   94.0624   11.2727 C.ar    1  UNL1        0.1360
     12 CL         66.2128   94.9632   10.0971 Cl      1  UNL1       -0.0616
     13 N          66.4377   94.3066   12.6785 N.ar    1  UNL1       -0.2174
     14 C          65.9814   93.1544   13.5235 C.ar    1  UNL1        0.1412
     15 N          66.1478   92.8525   14.9834 N.ar    1  UNL1       -0.3374
     16 C          65.5695   91.5942   15.5597 C.ar    1  UNL1        0.0734
     17 C          64.8247   90.6378   14.6762 C.ar    1  UNL1        0.0171
     18 C          64.6582   90.9397   13.2163 C.ar    1  UNL1        0.0042
     19 C          65.2366   92.1980   12.6400 C.ar    1  UNL1        0.0323
     20 H          66.6367   93.4802   15.5632 H       1  UNL1        0.1674
     21 C          63.2531   91.4734   10.1632 C.3     1  UNL1        0.0051
     22 C          64.5977   92.1280   10.0454 C.3     1  UNL1        0.0289
     23 C          64.1635   85.4876   14.4802 C.2     1  UNL1        0.2503
     24 O          64.9528   84.4224   15.1820 O.2     1  UNL1       -0.2699
     25 N          63.6220   85.2360   13.1043 N.am    1  UNL1       -0.2725
     26 C          63.8698   83.9192   12.4299 C.3     1  UNL1        0.1152
     27 C          62.8327   86.3012   12.4025 C.3     1  UNL1        0.1152
@<TRIPOS>BOND
     1    21    22    1
     2    22    10    1
     3    10    11   ar
     4    11    12    1
     5    11    13   ar
     6    13    14   ar
     7    14    15   ar
     8    15    16   ar
     9    16    17   ar
    10    17     1    1
    11     1     2   ar
    12     2     3   ar
    13     3     4   ar
    14     4     5    1
    15     4     6   ar
    16     6    23    1
    17    23    24    2
    18    23    25   am
    19    25    26    1
    20    25    27    1
    21     6     7   ar
    22    17    18   ar
    23    18    19   ar
    24    19    10   ar
    25    19    14    1
    26     7     1   ar
    27    15    20    1
    28     5     8    1
    29     5     9    1
@<TRIPOS>MOLECULE
*****
 27 29 0 0 0
SMALL
GASTEIGER

@<TRIPOS>ATOM
      1 C          63.8493   87.9439   13.6050 C.ar    1  UNL1        0.0017
      2 C          64.5748   88.9702   14.4237 C.ar    1  UNL1        0.0013
      3 C          64.5964   90.4035   13.9820 C.ar    1  UNL1        0.0142
      4 C          63.8925   90.8105   12.7215 C.ar    1  UNL1        0.0459
      5 N          63.9141   92.2438   12.2797 N.pl3   1  UNL1       -0.3569
      6 C          63.1671   89.7842   11.9027 C.ar    1  UNL1        0.0664
      7 C          63.1455   88.3509   12.3444 C.ar    1  UNL1        0.0058
      8 H          64.3902   92.9174   12.8171 H       1  UNL1        0.1424
      9 H          63.4521   92.5109   11.4524 H       1  UNL1        0.1424
     10 C          63.2223   82.7176   12.7586 C.ar    1  UNL1        0.0092
     11 C          63.3437   81.5810   13.7299 C.ar    1  UNL1        0.1360
     12 CL         63.1515   80.1272   13.4145 Cl      1  UNL1       -0.0616
     13 N          63.6912   82.1536   15.0721 N.ar    1  UNL1       -0.2174
     14 C          63.7846   83.6440   14.9303 C.ar    1  UNL1        0.1412
     15 N          64.0960   84.7287   15.9184 N.ar    1  UNL1       -0.3374
     16 C          64.1176   86.1619   15.4766 C.ar    1  UNL1        0.0734
     17 C          63.8277   86.5105   14.0467 C.ar    1  UNL1        0.0171
     18 C          63.5163   85.4258   13.0586 C.ar    1  UNL1        0.0042
     19 C          63.4947   83.9925   13.5004 C.ar    1  UNL1        0.0323
     20 H          64.2862   84.4999   16.8568 H       1  UNL1        0.1674
     21 C          63.9274   82.9079   10.2652 C.3     1  UNL1        0.0051
     22 C          62.8872   82.5999   11.3012 C.3     1  UNL1        0.0289
     23 C          62.4632   90.1911   10.6422 C.2     1  UNL1        0.2503
     24 O          63.0655   91.2366    9.7509 O.2     1  UNL1       -0.2699
     25 N          61.1571   89.5527   10.2729 N.am    1  UNL1       -0.2725
     26 C          60.4532   89.9597    9.0123 C.3     1  UNL1        0.1152
     27 C          60.5548   88.5072   11.1641 C.3     1  UNL1        0.1152
@<TRIPOS>BOND
     1    21    22    1
     2    22    10    1
     3    10    11   ar
     4    11    12    1
     5    11    13   ar
     6    13    14   ar
     7    14    15   ar
     8    15    16   ar
     9    16    17   ar
    10    17     1    1
    11     1     2   ar
    12     2     3   ar
    13     3     4   ar
    14     4     5    1
    15     4     6   ar
    16     6    23    1
    17    23    24    2
    18    23    25   am
    19    25    26    1
    20    25    27    1
    21     6     7   ar
    22    17    18   ar
    23    18    19   ar
    24    19    10   ar
    25    19    14    1
    26     7     1   ar
    27    15    20    1
    28     5     8    1
    29     5     9    1
@<TRIPOS>MOLECULE
*****
 27 29 0 0 0
SMALL
GASTEIGER

@<TRIPOS>ATOM
      1 C          63.9158   88.9462   14.5850 C.ar    1  UNL1        0.0017
      2 C          63.3070   89.2835   15.9137 C.ar    1  UNL1        0.0013
      3 C          63.0523   88.1995   16.9188 C.ar    1  UNL1        0.0142
      4 C          63.4065   86.7783   16.5952 C.ar    1  UNL1        0.0459
      5 N          63.1518   85.6944   17.6003 N.pl3   1  UNL1       -0.3569
      6 C          64.0153   86.4411   15.2664 C.ar    1  UNL1        0.0664
      7 C          64.2700   87.5250   14.2614 C.ar    1  UNL1        0.0058
      8 H          62.7522   85.9158   18.4724 H       1  UNL1        0.1424
      9 H          63.3843   84.7616   17.3879 H       1  UNL1        0.1424
     10 C          66.1490   93.5146   12.9831 C.ar    1  UNL1        0.0092
     11 C          66.0212   94.2183   11.6646 C.ar    1  UNL1        0.1360
     12 CL         66.6848   95.5092   11.2861 Cl      1  UNL1       -0.0616
     13 N          65.1132   93.4045   10.7910 N.ar    1  UNL1       -0.2174
     14 C          64.6798   92.1978   11.5695 C.ar    1  UNL1        0.1412
     15 N          63.7850   91.0459   11.2198 N.ar    1  UNL1       -0.3374
     16 C          63.5303   89.9621   12.2250 C.ar    1  UNL1        0.0734
     17 C          64.1705   90.0301   13.5798 C.ar    1  UNL1        0.0171
     18 C          65.0653   91.1821   13.9295 C.ar    1  UNL1        0.0042
     19 C          65.3200   92.2659   12.9243 C.ar    1  UNL1        0.0323
     20 H          63.3648   91.0012   10.3306 H       1  UNL1        0.1674
     21 C          67.9014   93.0288   14.8386 C.3     1  UNL1        0.0051
     22 C          66.9629   93.9783   14.1547 C.3     1  UNL1        0.0289
     23 C          64.3695   85.0199   14.9428 C.2     1  UNL1        0.2503
     24 O          65.8089   84.6101   14.8413 O.2     1  UNL1       -0.2699
     25 N          63.2843   84.0084   14.7207 N.am    1  UNL1       -0.2725
     26 C          63.6385   82.5872   14.3971 C.3     1  UNL1        0.1152
     27 C          61.8449   84.4182   14.8222 C.3     1  UNL1        0.1152
@<TRIPOS>BOND
     1    21    22    1
     2    22    10    1
     3    10    11   ar
     4    11    12    1
     5    11    13   ar
     6    13    14   ar
     7    14    15   ar
     8    15    16   ar
     9    16    17   ar
    10    17     1    1
    11     1     2   ar
    12     2     3   ar
    13     3     4   ar
    14     4     5    1
    15     4     6   ar
    16     6    23    1
    17    23    24    2
    18    23    25   am
    19    25    26    1
    20    25    27    1
    21     6     7   ar
    22    17    18   ar
    23    18    19   ar
    24    19    10   ar
    25    19    14    1
    26     7     1   ar
    27    15    20    1
    28     5     8    1
    29     5     9    1
@<TRIPOS>MOLECULE
*****
 27 29 0 0 0
SMALL
GASTEIGER

@<TRIPOS>ATOM
      1 C          64.0002   89.6744   13.7938 C.ar    1  UNL1        0.0017
      2 C          63.7303   89.7177   15.2686 C.ar    1  UNL1        0.0013
      3 C          64.3054   90.8227   16.1043 C.ar    1  UNL1        0.0142
      4 C          65.1504   91.8844   15.4650 C.ar    1  UNL1        0.0459
      5 N          65.7254   92.9894   16.3006 N.pl3   1  UNL1       -0.3569
      6 C          65.4203   91.8412   13.9901 C.ar    1  UNL1        0.0664
      7 C          64.8452   90.7362   13.1545 C.ar    1  UNL1        0.0058
      8 H          65.5483   93.0178   17.2686 H       1  UNL1        0.1424
      9 H          66.2800   93.6863   15.8810 H       1  UNL1        0.1424
     10 C          61.1786   87.8047    9.6748 C.ar    1  UNL1        0.0092
     11 C          60.9058   86.3827    9.2831 C.ar    1  UNL1        0.1360
     12 CL         60.0973   85.9329    8.1024 Cl      1  UNL1       -0.0616
     13 N          61.5835   85.4894   10.2795 N.ar    1  UNL1       -0.2174
     14 C          62.2751   86.3594   11.2869 C.ar    1  UNL1        0.1412
     15 N          63.1004   86.0334   12.4963 N.ar    1  UNL1       -0.3374
     16 C          63.6754   87.1384   13.3319 C.ar    1  UNL1        0.0734
     17 C          63.4251   88.5694   12.9581 C.ar    1  UNL1        0.0171
     18 C          62.5998   88.8954   11.7488 C.ar    1  UNL1        0.0042
     19 C          62.0248   87.7904   10.9132 C.ar    1  UNL1        0.0323
     20 H          63.2646   85.0942   12.7416 H       1  UNL1        0.1674
     21 C          60.0124   90.1261    9.7170 C.3     1  UNL1        0.0051
     22 C          60.6907   89.0267    8.9544 C.3     1  UNL1        0.0289
     23 C          66.2653   92.9029   13.3508 C.2     1  UNL1        0.2503
     24 O          67.4011   93.5178   14.1137 O.2     1  UNL1       -0.2699
     25 N          65.9744   93.3498   11.9488 N.am    1  UNL1       -0.2725
     26 C          66.8194   94.4116   11.3096 C.3     1  UNL1        0.1152
     27 C          64.8386   92.7349   11.1860 C.3     1  UNL1        0.1152
@<TRIPOS>BOND
     1    21    22    1
     2    22    10    1
     3    10    11   ar
     4    11    12    1
     5    11    13   ar
     6    13    14   ar
     7    14    15   ar
     8    15    16   ar
     9    16    17   ar
    10    17     1    1
    11     1     2   ar
    12     2     3   ar
    13     3     4   ar
    14     4     5    1
    15     4     6   ar
    16     6    23    1
    17    23    24    2
    18    23    25   am
    19    25    26    1
    20    25    27    1
    21     6     7   ar
    22    17    18   ar
    23    18    19   ar
    24    19    10   ar
    25    19    14    1
    26     7     1   ar
    27    15    20    1
    28     5     8    1
    29     5     9    1
