@<TRIPOS>MOLECULE
*****
 33 37 0 0 0
SMALL
GASTEIGER

@<TRIPOS>ATOM
      1 C          63.6364   88.7449   13.0275 C.ar    1  UNL1        0.1389
      2 C          62.8761   88.0104   11.9635 C.ar    1  UNL1        0.0397
      3 C          61.9100   88.7498   11.0860 C.ar    1  UNL1        0.0353
      4 C          61.7042   90.2238   11.2727 C.ar    1  UNL1        0.0779
      5 C          62.4645   90.9584   12.3367 C.ar    1  UNL1        0.0219
      6 C          63.4306   90.2190   13.2141 C.ar    1  UNL1        0.0394
      7 N          60.7380   90.9632   10.3953 N.2     1  UNL1       -0.2641
      8 C          59.9777   90.2286    9.3312 C.3     1  UNL1        0.1696
      9 C          60.1835   88.7545    9.1445 C.2     1  UNL1        0.0912
     10 N          59.5804   87.7702    8.1867 N.am    1  UNL1       -0.1628
     11 C          60.1739   86.4226    8.4721 C.2     1  UNL1        0.3349
     12 O          59.8537   85.1474    7.7500 O.2     1  UNL1       -0.2497
     13 N          61.1436   86.5738    9.6063 N.am    1  UNL1       -0.2196
     14 C          61.1496   88.0151   10.0220 C.2     1  UNL1        0.0743
     15 C          64.1910   90.9536   14.2782 C.ar    1  UNL1        0.0526
     16 C          65.2684   91.9717   14.0484 C.ar    1  UNL1        0.1007
     17 C          65.7746   92.4338   12.7142 C.3     1  UNL1        0.0557
     18 N          65.7506   92.4464   15.3871 N.ar    1  UNL1       -0.0817
     19 O          64.9713   91.7218   16.4443 O.2     1  UNL1       -0.3581
     20 C          64.0074   90.7992   15.7589 C.ar    1  UNL1        0.1545
     21 C          63.0313   89.8830   16.4355 C.3     1  UNL1        0.0754
     22 C          61.9635   85.4766   10.2177 C.ar    1  UNL1        0.0556
     23 C          61.8744   85.2051   11.6902 C.ar    1  UNL1        0.0150
     24 C          62.6943   84.1078   12.3015 C.ar    1  UNL1        0.0013
     25 C          63.6034   83.2820   11.4404 C.ar    1  UNL1       -0.0002
     26 C          63.6925   83.5535    9.9678 C.ar    1  UNL1       -0.0030
     27 C          62.8726   84.6508    9.3565 C.ar    1  UNL1       -0.0087
     28 C          62.9618   84.9221    7.8840 C.3     1  UNL1        0.0201
     29 C          63.7196   86.1863    8.1628 C.3     1  UNL1        0.0044
     30 C          62.2040   83.6580    7.6051 C.3     1  UNL1        0.0044
     31 C          63.0510   85.1935    6.4113 C.3     1  UNL1        0.0044
     32 C          64.1876   86.7232   14.5633 C.3     1  UNL1        0.2525
     33 O          64.6025   88.0055   13.9049 O.3     1  UNL1       -0.4714
@<TRIPOS>BOND
     1    32    33    1
     2    33     1    1
     3     1     2   ar
     4     2     3   ar
     5     3     4   ar
     6     4     5   ar
     7     5     6   ar
     8     6    15    1
     9    15    16   ar
    10    16    17    1
    11    16    18   ar
    12    18    19   ar
    13    19    20   ar
    14    20    21    1
    15     4     7    2
    16     7     8    1
    17     8     9    1
    18     9    10    2
    19    10    11    1
    20    11    12    2
    21    11    13   am
    22    13    22    1
    23    22    23   ar
    24    23    24   ar
    25    24    25   ar
    26    25    26   ar
    27    26    27   ar
    28    27    28    1
    29    28    29    1
    30    28    30    1
    31    28    31    1
    32    13    14    1
    33     6     1   ar
    34    20    15   ar
    35    14     9    1
    36    14     3    2
    37    27    22   ar
@<TRIPOS>MOLECULE
*****
 33 37 0 0 0
SMALL
GASTEIGER

@<TRIPOS>ATOM
      1 C          45.3394   74.5755   17.2567 C.ar    1  UNL1        0.1389
      2 C          45.0869   75.8736   17.9645 C.ar    1  UNL1        0.0397
      3 C          44.8269   75.8841   19.4418 C.ar    1  UNL1        0.0353
      4 C          44.8194   74.5965   20.2112 C.ar    1  UNL1        0.0779
      5 C          45.0718   73.2984   19.5033 C.ar    1  UNL1        0.0219
      6 C          45.3318   73.2879   18.0260 C.ar    1  UNL1        0.0394
      7 N          44.5594   74.6070   21.6884 N.2     1  UNL1       -0.2641
      8 C          44.3070   75.9051   22.3963 C.3     1  UNL1        0.1696
      9 C          44.3145   77.1928   21.6270 C.2     1  UNL1        0.0912
     10 N          44.0997   78.6159   22.0497 N.am    1  UNL1       -0.1628
     11 C          44.2270   79.4848   20.8337 C.2     1  UNL1        0.3349
     12 O          44.0856   80.9777   20.7982 O.2     1  UNL1       -0.2497
     13 N          44.5204   78.5989   19.6595 N.am    1  UNL1       -0.2196
     14 C          44.5745   77.1823   20.1497 C.2     1  UNL1        0.0743
     15 C          45.5843   71.9897   17.3182 C.ar    1  UNL1        0.0526
     16 C          44.8035   71.4532   16.1551 C.ar    1  UNL1        0.1007
     17 C          43.6332   72.1208   15.4957 C.3     1  UNL1        0.0557
     18 N          45.3985   70.1321   15.7672 N.ar    1  UNL1       -0.0817
     19 O          46.5470   69.8519   16.6906 O.2     1  UNL1       -0.3581
     20 C          46.6618   71.0000   17.6491 C.ar    1  UNL1        0.1545
     21 C          47.6761   71.1347   18.7459 C.3     1  UNL1        0.0754
     22 C          44.7239   79.0502   18.2435 C.ar    1  UNL1        0.0556
     23 C          43.6331   78.8602   17.2316 C.ar    1  UNL1        0.0150
     24 C          43.8366   79.3116   15.8157 C.ar    1  UNL1        0.0013
     25 C          45.1310   79.9528   15.4116 C.ar    1  UNL1       -0.0002
     26 C          46.2219   80.1428   16.4235 C.ar    1  UNL1       -0.0030
     27 C          46.0183   79.6915   17.8395 C.ar    1  UNL1       -0.0087
     28 C          47.1092   79.8814   18.8513 C.3     1  UNL1        0.0201
     29 C          47.5288   78.4531   18.6672 C.3     1  UNL1        0.0044
     30 C          46.6897   81.3098   19.0354 C.3     1  UNL1        0.0044
     31 C          48.2002   80.0715   19.8632 C.3     1  UNL1        0.0044
     32 C          44.5528   75.0684   14.8301 C.3     1  UNL1        0.2525
     33 O          45.5993   74.5650   15.7794 O.3     1  UNL1       -0.4714
@<TRIPOS>BOND
     1    32    33    1
     2    33     1    1
     3     1     2   ar
     4     2     3   ar
     5     3     4   ar
     6     4     5   ar
     7     5     6   ar
     8     6    15    1
     9    15    16   ar
    10    16    17    1
    11    16    18   ar
    12    18    19   ar
    13    19    20   ar
    14    20    21    1
    15     4     7    2
    16     7     8    1
    17     8     9    1
    18     9    10    2
    19    10    11    1
    20    11    12    2
    21    11    13   am
    22    13    22    1
    23    22    23   ar
    24    23    24   ar
    25    24    25   ar
    26    25    26   ar
    27    26    27   ar
    28    27    28    1
    29    28    29    1
    30    28    30    1
    31    28    31    1
    32    13    14    1
    33     6     1   ar
    34    20    15   ar
    35    14     9    1
    36    14     3    2
    37    27    22   ar
@<TRIPOS>MOLECULE
*****
 33 37 0 0 0
SMALL
GASTEIGER

@<TRIPOS>ATOM
      1 C          61.6643   94.6594   -2.4289 C.ar    1  UNL1        0.1389
      2 C          60.2998   94.9583   -2.9753 C.ar    1  UNL1        0.0397
      3 C          59.2618   95.5908   -2.0963 C.ar    1  UNL1        0.0353
      4 C          59.5885   95.9244   -0.6709 C.ar    1  UNL1        0.0779
      5 C          60.9530   95.6256   -0.1244 C.ar    1  UNL1        0.0219
      6 C          61.9909   94.9930   -1.0034 C.ar    1  UNL1        0.0394
      7 N          58.5506   96.5570    0.2081 N.2     1  UNL1       -0.2641
      8 C          57.1860   96.8559   -0.3383 C.3     1  UNL1        0.1696
      9 C          56.8593   96.5222   -1.7638 C.2     1  UNL1        0.0912
     10 N          55.6100   96.6986   -2.5750 N.am    1  UNL1       -0.1628
     11 C          55.8758   96.1751   -3.9552 C.2     1  UNL1        0.3349
     12 O          54.8993   96.1551   -5.0937 O.2     1  UNL1       -0.2497
     13 N          57.2893   95.6752   -3.9972 N.am    1  UNL1       -0.2196
     14 C          57.8972   95.8897   -2.6428 C.2     1  UNL1        0.0743
     15 C          63.3555   94.6941   -0.4569 C.ar    1  UNL1        0.0526
     16 C          63.6874   93.6413    0.5586 C.ar    1  UNL1        0.1007
     17 C          62.7131   92.7024    1.2059 C.3     1  UNL1        0.0557
     18 N          65.1648   93.6921    0.8131 N.ar    1  UNL1       -0.0817
     19 O          65.7460   94.7764   -0.0451 O.2     1  UNL1       -0.3581
     20 C          64.6278   95.3957   -0.8300 C.ar    1  UNL1        0.1545
     21 C          64.7589   96.5193   -1.8151 C.3     1  UNL1        0.0754
     22 C          57.9747   95.0674   -5.1850 C.ar    1  UNL1        0.0556
     23 C          58.8491   95.9147   -6.0612 C.ar    1  UNL1        0.0150
     24 C          59.5345   95.3069   -7.2490 C.ar    1  UNL1        0.0013
     25 C          59.3455   93.8519   -7.5606 C.ar    1  UNL1       -0.0002
     26 C          58.4712   93.0046   -6.6845 C.ar    1  UNL1       -0.0030
     27 C          57.7858   93.6124   -5.4967 C.ar    1  UNL1       -0.0087
     28 C          56.9115   92.7650   -4.6206 C.3     1  UNL1        0.0201
     29 C          55.7548   93.0017   -5.5459 C.3     1  UNL1        0.0044
     30 C          58.0681   92.5283   -3.6952 C.3     1  UNL1        0.0044
     31 C          56.0371   91.9176   -3.7445 C.3     1  UNL1        0.0044
     32 C          62.8196   94.4387   -4.7455 C.3     1  UNL1        0.2525
     33 O          62.7022   94.0269   -3.3079 O.3     1  UNL1       -0.4714
@<TRIPOS>BOND
     1    32    33    1
     2    33     1    1
     3     1     2   ar
     4     2     3   ar
     5     3     4   ar
     6     4     5   ar
     7     5     6   ar
     8     6    15    1
     9    15    16   ar
    10    16    17    1
    11    16    18   ar
    12    18    19   ar
    13    19    20   ar
    14    20    21    1
    15     4     7    2
    16     7     8    1
    17     8     9    1
    18     9    10    2
    19    10    11    1
    20    11    12    2
    21    11    13   am
    22    13    22    1
    23    22    23   ar
    24    23    24   ar
    25    24    25   ar
    26    25    26   ar
    27    26    27   ar
    28    27    28    1
    29    28    29    1
    30    28    30    1
    31    28    31    1
    32    13    14    1
    33     6     1   ar
    34    20    15   ar
    35    14     9    1
    36    14     3    2
    37    27    22   ar
@<TRIPOS>MOLECULE
*****
 33 37 0 0 0
SMALL
GASTEIGER

@<TRIPOS>ATOM
      1 C          60.6716   94.5462   -1.8733 C.ar    1  UNL1        0.1389
      2 C          59.6391   94.9930   -2.8654 C.ar    1  UNL1        0.0397
      3 C          58.3180   95.5188   -2.3877 C.ar    1  UNL1        0.0353
      4 C          58.0294   95.5977   -0.9178 C.ar    1  UNL1        0.0779
      5 C          59.0618   95.1508    0.0742 C.ar    1  UNL1        0.0219
      6 C          60.3830   94.6251   -0.4035 C.ar    1  UNL1        0.0394
      7 N          56.7082   96.1234   -0.4401 N.2     1  UNL1       -0.2641
      8 C          55.6758   96.5703   -1.4322 C.3     1  UNL1        0.1696
      9 C          55.9644   96.4914   -2.9021 C.2     1  UNL1        0.0912
     10 N          55.1477   96.8559   -4.1064 N.am    1  UNL1       -0.1628
     11 C          55.9641   96.5554   -5.3283 C.2     1  UNL1        0.3349
     12 O          55.5347   96.7678   -6.7497 O.2     1  UNL1       -0.2497
     13 N          57.2853   96.0052   -4.8793 N.am    1  UNL1       -0.2196
     14 C          57.2855   95.9656   -3.3798 C.2     1  UNL1        0.0743
     15 C          61.4155   94.1782    0.5887 C.ar    1  UNL1        0.0526
     16 C          62.2994   95.0738    1.4052 C.ar    1  UNL1        0.1007
     17 C          62.3061   96.5734    1.3729 C.3     1  UNL1        0.0557
     18 N          63.1755   94.2064    2.2597 N.ar    1  UNL1       -0.0817
     19 O          62.8330   92.7747    1.9713 O.2     1  UNL1       -0.3581
     20 C          61.7452   92.7573    0.9386 C.ar    1  UNL1        0.1545
     21 C          61.1005   91.5339    0.3577 C.3     1  UNL1        0.0754
     22 C          58.4091   95.5708   -5.7729 C.ar    1  UNL1        0.0556
     23 C          59.5920   96.4693   -5.9810 C.ar    1  UNL1        0.0150
     24 C          60.7158   96.0349   -6.8746 C.ar    1  UNL1        0.0013
     25 C          60.6566   94.7020   -7.5600 C.ar    1  UNL1       -0.0002
     26 C          59.4737   93.8035   -7.3519 C.ar    1  UNL1       -0.0030
     27 C          58.3499   94.2379   -6.4583 C.ar    1  UNL1       -0.0087
     28 C          57.1671   93.3393   -6.2503 C.3     1  UNL1        0.0201
     29 C          57.7405   92.8877   -4.9399 C.3     1  UNL1        0.0044
     30 C          56.5935   93.7908   -7.5607 C.3     1  UNL1        0.0044
     31 C          55.9841   92.4407   -6.0423 C.3     1  UNL1        0.0044
     32 C          62.2177   93.7749   -3.8135 C.3     1  UNL1        0.2525
     33 O          61.9927   94.0204   -2.3510 O.3     1  UNL1       -0.4714
@<TRIPOS>BOND
     1    32    33    1
     2    33     1    1
     3     1     2   ar
     4     2     3   ar
     5     3     4   ar
     6     4     5   ar
     7     5     6   ar
     8     6    15    1
     9    15    16   ar
    10    16    17    1
    11    16    18   ar
    12    18    19   ar
    13    19    20   ar
    14    20    21    1
    15     4     7    2
    16     7     8    1
    17     8     9    1
    18     9    10    2
    19    10    11    1
    20    11    12    2
    21    11    13   am
    22    13    22    1
    23    22    23   ar
    24    23    24   ar
    25    24    25   ar
    26    25    26   ar
    27    26    27   ar
    28    27    28    1
    29    28    29    1
    30    28    30    1
    31    28    31    1
    32    13    14    1
    33     6     1   ar
    34    20    15   ar
    35    14     9    1
    36    14     3    2
    37    27    22   ar
@<TRIPOS>MOLECULE
*****
 33 37 0 0 0
SMALL
GASTEIGER

@<TRIPOS>ATOM
      1 C          65.2007   92.3628   11.3757 C.ar    1  UNL1        0.1389
      2 C          64.5634   91.5156   12.4368 C.ar    1  UNL1        0.0397
      3 C          64.8205   91.8085   13.8853 C.ar    1  UNL1        0.0353
      4 C          65.7149   92.9486   14.2727 C.ar    1  UNL1        0.0779
      5 C          66.3523   93.7958   13.2116 C.ar    1  UNL1        0.0219
      6 C          66.0952   93.5029   11.7631 C.ar    1  UNL1        0.0394
      7 N          65.9721   93.2415   15.7212 N.2     1  UNL1       -0.2641
      8 C          65.3347   92.3943   16.7823 C.3     1  UNL1        0.1696
      9 C          64.4402   91.2541   16.3949 C.2     1  UNL1        0.0912
     10 N          63.6785   90.2534   17.2125 N.am    1  UNL1       -0.1628
     11 C          62.9507   89.3421   16.2693 C.2     1  UNL1        0.3349
     12 O          62.0663   88.1947   16.6583 O.2     1  UNL1       -0.2497
     13 N          63.2625   89.7795   14.8689 N.am    1  UNL1       -0.2196
     14 C          64.1831   90.9612   14.9465 C.2     1  UNL1        0.0743
     15 C          66.7326   94.3501   10.7019 C.ar    1  UNL1        0.0526
     16 C          66.4825   95.8111   10.4719 C.ar    1  UNL1        0.1007
     17 C          65.5513   96.6815   11.2626 C.3     1  UNL1        0.0557
     18 N          67.3273   96.2490    9.3124 N.ar    1  UNL1       -0.0817
     19 O          68.0995   95.0586    8.8257 O.2     1  UNL1       -0.3581
     20 C          67.7319   93.8851    9.6845 C.ar    1  UNL1        0.1545
     21 C          68.2692   92.4912    9.5496 C.3     1  UNL1        0.0754
     22 C          62.7447   89.1463   13.6115 C.ar    1  UNL1        0.0556
     23 C          61.7949   89.9000   12.7284 C.ar    1  UNL1        0.0150
     24 C          61.2771   89.2669   11.4710 C.ar    1  UNL1        0.0013
     25 C          61.7091   87.8801   11.0967 C.ar    1  UNL1       -0.0002
     26 C          62.6589   87.1264   11.9797 C.ar    1  UNL1       -0.0030
     27 C          63.1767   87.7595   13.2371 C.ar    1  UNL1       -0.0087
     28 C          64.1265   87.0058   14.1201 C.3     1  UNL1        0.0201
     29 C          64.9408   88.2515   14.3077 C.3     1  UNL1        0.0044
     30 C          63.3123   85.7600   13.9325 C.3     1  UNL1        0.0044
     31 C          65.0764   86.2519   15.0031 C.3     1  UNL1        0.0044
     32 C          63.6314   91.4801    9.5027 C.3     1  UNL1        0.2525
     33 O          64.9436   92.0699    9.9272 O.3     1  UNL1       -0.4714
@<TRIPOS>BOND
     1    32    33    1
     2    33     1    1
     3     1     2   ar
     4     2     3   ar
     5     3     4   ar
     6     4     5   ar
     7     5     6   ar
     8     6    15    1
     9    15    16   ar
    10    16    17    1
    11    16    18   ar
    12    18    19   ar
    13    19    20   ar
    14    20    21    1
    15     4     7    2
    16     7     8    1
    17     8     9    1
    18     9    10    2
    19    10    11    1
    20    11    12    2
    21    11    13   am
    22    13    22    1
    23    22    23   ar
    24    23    24   ar
    25    24    25   ar
    26    25    26   ar
    27    26    27   ar
    28    27    28    1
    29    28    29    1
    30    28    30    1
    31    28    31    1
    32    13    14    1
    33     6     1   ar
    34    20    15   ar
    35    14     9    1
    36    14     3    2
    37    27    22   ar
@<TRIPOS>MOLECULE
*****
 33 37 0 0 0
SMALL
GASTEIGER

@<TRIPOS>ATOM
      1 C          63.0870   85.4728   12.4181 C.ar    1  UNL1        0.1389
      2 C          63.1372   86.7739   13.1628 C.ar    1  UNL1        0.0397
      3 C          63.1870   86.7786   14.6619 C.ar    1  UNL1        0.0353
      4 C          63.1866   85.4822   15.4164 C.ar    1  UNL1        0.0779
      5 C          63.1363   84.1811   14.6717 C.ar    1  UNL1        0.0219
      6 C          63.0866   84.1764   13.1726 C.ar    1  UNL1        0.0394
      7 N          63.2363   85.4869   16.9156 N.2     1  UNL1       -0.2641
      8 C          63.2866   86.7880   17.6603 C.3     1  UNL1        0.1696
      9 C          63.2870   88.0845   16.9058 C.2     1  UNL1        0.0912
     10 N          63.3302   89.5123   17.3636 N.am    1  UNL1       -0.1628
     11 C          63.3072   90.3899   16.1475 C.2     1  UNL1        0.3349
     12 O          63.3364   91.8896   16.1418 O.2     1  UNL1       -0.2497
     13 N          63.2497   89.5047   14.9380 N.am    1  UNL1       -0.2196
     14 C          63.2373   88.0798   15.4066 C.2     1  UNL1        0.0743
     15 C          63.0363   82.8753   12.4279 C.ar    1  UNL1        0.0526
     16 C          63.7407   82.5690   11.1395 C.ar    1  UNL1        0.1007
     17 C          64.6190   83.5100   10.3695 C.3     1  UNL1        0.0557
     18 N          63.4126   81.1564   10.7563 N.ar    1  UNL1       -0.0817
     19 O          62.5054   80.5896   11.8078 O.2     1  UNL1       -0.3581
     20 C          62.2729   81.6519   12.8409 C.ar    1  UNL1        0.1545
     21 C          61.4256   81.5150   14.0711 C.3     1  UNL1        0.0754
     22 C          63.2114   89.9636   13.5104 C.ar    1  UNL1        0.0556
     23 C          62.0422   89.6098   12.6400 C.ar    1  UNL1        0.0150
     24 C          62.0039   90.0688   11.2124 C.ar    1  UNL1        0.0013
     25 C          63.1348   90.8815   10.6553 C.ar    1  UNL1       -0.0002
     26 C          64.3041   91.2353   11.5257 C.ar    1  UNL1       -0.0030
     27 C          64.3424   90.7764   12.9533 C.ar    1  UNL1       -0.0087
     28 C          65.5116   91.1302   13.8236 C.3     1  UNL1        0.0201
     29 C          65.4545   92.5440   13.3258 C.3     1  UNL1        0.0044
     30 C          65.5689   89.7164   14.3216 C.3     1  UNL1        0.0044
     31 C          66.6810   91.4840   14.6941 C.3     1  UNL1        0.0044
     32 C          61.8487   86.0419   10.2062 C.3     1  UNL1        0.2525
     33 O          63.0372   85.4682   10.9189 O.3     1  UNL1       -0.4714
@<TRIPOS>BOND
     1    32    33    1
     2    33     1    1
     3     1     2   ar
     4     2     3   ar
     5     3     4   ar
     6     4     5   ar
     7     5     6   ar
     8     6    15    1
     9    15    16   ar
    10    16    17    1
    11    16    18   ar
    12    18    19   ar
    13    19    20   ar
    14    20    21    1
    15     4     7    2
    16     7     8    1
    17     8     9    1
    18     9    10    2
    19    10    11    1
    20    11    12    2
    21    11    13   am
    22    13    22    1
    23    22    23   ar
    24    23    24   ar
    25    24    25   ar
    26    25    26   ar
    27    26    27   ar
    28    27    28    1
    29    28    29    1
    30    28    30    1
    31    28    31    1
    32    13    14    1
    33     6     1   ar
    34    20    15   ar
    35    14     9    1
    36    14     3    2
    37    27    22   ar
@<TRIPOS>MOLECULE
*****
 33 37 0 0 0
SMALL
GASTEIGER

@<TRIPOS>ATOM
      1 C          62.5763   83.8299   12.1927 C.ar    1  UNL1        0.1389
      2 C          62.5690   85.2922   11.8588 C.ar    1  UNL1        0.0397
      3 C          63.2029   86.2784   12.7946 C.ar    1  UNL1        0.0353
      4 C          63.8441   85.8022   14.0643 C.ar    1  UNL1        0.0779
      5 C          63.8514   84.3399   14.3982 C.ar    1  UNL1        0.0219
      6 C          63.2175   83.3538   13.4624 C.ar    1  UNL1        0.0394
      7 N          64.4781   86.7884   15.0000 N.2     1  UNL1       -0.2641
      8 C          64.4708   88.2507   14.6661 C.3     1  UNL1        0.1696
      9 C          63.8295   88.7269   13.3964 C.2     1  UNL1        0.0912
     10 N          63.6693   90.0961   12.8050 N.am    1  UNL1       -0.1628
     11 C          62.9364   89.9561   11.5038 C.2     1  UNL1        0.3349
     12 O          62.5620   91.0753   10.5780 O.2     1  UNL1       -0.2497
     13 N          62.6436   88.5005   11.2910 N.am    1  UNL1       -0.2196
     14 C          63.1956   87.7408   12.4606 C.2     1  UNL1        0.0743
     15 C          63.2249   81.8914   13.7964 C.ar    1  UNL1        0.0526
     16 C          62.0368   81.0763   14.2137 C.ar    1  UNL1        0.1007
     17 C          60.6328   81.5805   14.3704 C.3     1  UNL1        0.0557
     18 N          62.4992   79.6686   14.4469 N.ar    1  UNL1       -0.0817
     19 O          63.9732   79.6136   14.1736 O.2     1  UNL1       -0.3581
     20 C          64.4216   80.9873   13.7716 C.ar    1  UNL1        0.1545
     21 C          65.8210   81.3869   13.4086 C.3     1  UNL1        0.0754
     22 C          61.9250   87.9084   10.1149 C.ar    1  UNL1        0.0556
     23 C          62.6193   86.9100    9.2367 C.ar    1  UNL1        0.0150
     24 C          61.9007   86.3180    8.0607 C.ar    1  UNL1        0.0013
     25 C          60.4878   86.7243    7.7628 C.ar    1  UNL1       -0.0002
     26 C          59.7936   87.7227    8.6410 C.ar    1  UNL1       -0.0030
     27 C          60.5122   88.3147    9.8170 C.ar    1  UNL1       -0.0087
     28 C          59.8178   89.3131   10.6951 C.3     1  UNL1        0.0201
     29 C          59.9664   90.3559    9.6272 C.3     1  UNL1        0.0044
     30 C          59.6692   88.2703   11.7632 C.3     1  UNL1        0.0044
     31 C          59.1235   90.3115   11.5734 C.3     1  UNL1        0.0044
     32 C          62.7988   81.8802   10.4901 C.3     1  UNL1        0.2525
     33 O          61.9424   82.8437   11.2570 O.3     1  UNL1       -0.4714
@<TRIPOS>BOND
     1    32    33    1
     2    33     1    1
     3     1     2   ar
     4     2     3   ar
     5     3     4   ar
     6     4     5   ar
     7     5     6   ar
     8     6    15    1
     9    15    16   ar
    10    16    17    1
    11    16    18   ar
    12    18    19   ar
    13    19    20   ar
    14    20    21    1
    15     4     7    2
    16     7     8    1
    17     8     9    1
    18     9    10    2
    19    10    11    1
    20    11    12    2
    21    11    13   am
    22    13    22    1
    23    22    23   ar
    24    23    24   ar
    25    24    25   ar
    26    25    26   ar
    27    26    27   ar
    28    27    28    1
    29    28    29    1
    30    28    30    1
    31    28    31    1
    32    13    14    1
    33     6     1   ar
    34    20    15   ar
    35    14     9    1
    36    14     3    2
    37    27    22   ar
@<TRIPOS>MOLECULE
*****
 33 37 0 0 0
SMALL
GASTEIGER

@<TRIPOS>ATOM
      1 C          64.0708   90.4925   13.2561 C.ar    1  UNL1        0.1389
      2 C          63.4074   89.2785   12.6763 C.ar    1  UNL1        0.0397
      3 C          63.7301   87.9171   13.2172 C.ar    1  UNL1        0.0353
      4 C          64.7162   87.7697   14.3378 C.ar    1  UNL1        0.0779
      5 C          65.3796   88.9837   14.9176 C.ar    1  UNL1        0.0219
      6 C          65.0568   90.3451   14.3767 C.ar    1  UNL1        0.0394
      7 N          65.0389   86.4083   14.8787 N.2     1  UNL1       -0.2641
      8 C          64.3755   85.1944   14.2989 C.3     1  UNL1        0.1696
      9 C          63.3894   85.3417   13.1782 C.2     1  UNL1        0.0912
     10 N          62.5834   84.3354   12.4116 N.am    1  UNL1       -0.1628
     11 C          61.7626   85.0748   11.3970 C.2     1  UNL1        0.3349
     12 O          60.8103   84.4591   10.4153 O.2     1  UNL1       -0.2497
     13 N          62.0612   86.5381   11.5365 N.am    1  UNL1       -0.2196
     14 C          63.0667   86.7031   12.6373 C.2     1  UNL1        0.0743
     15 C          65.7203   91.5591   14.9566 C.ar    1  UNL1        0.0526
     16 C          66.9440   92.2378   14.4164 C.ar    1  UNL1        0.1007
     17 C          67.7192   91.8217   13.2015 C.3     1  UNL1        0.0557
     18 N          67.2564   93.4056   15.3044 N.ar    1  UNL1       -0.0817
     19 O          66.2258   93.4487   16.3934 O.2     1  UNL1       -0.3581
     20 C          65.2764   92.3075   16.1784 C.ar    1  UNL1        0.1545
     21 C          64.0912   91.9733   17.0349 C.3     1  UNL1        0.0754
     22 C          61.4601   87.6426   10.7187 C.ar    1  UNL1        0.0556
     23 C          60.8569   88.8360   11.3983 C.ar    1  UNL1        0.0150
     24 C          60.2557   89.9405   10.5806 C.ar    1  UNL1        0.0013
     25 C          60.2577   89.8515    9.0832 C.ar    1  UNL1       -0.0002
     26 C          60.8609   88.6581    8.4036 C.ar    1  UNL1       -0.0030
     27 C          61.4621   87.5536    9.2214 C.ar    1  UNL1       -0.0087
     28 C          62.0652   86.3602    8.5417 C.3     1  UNL1        0.0201
     29 C          63.4086   86.7185    9.1046 C.3     1  UNL1        0.0044
     30 C          60.7218   86.0019    7.9787 C.3     1  UNL1        0.0044
     31 C          62.6683   85.1667    7.8620 C.3     1  UNL1        0.0044
     32 C          64.4244   92.3458   11.4701 C.3     1  UNL1        0.2525
     33 O          63.7481   91.8538   12.7152 O.3     1  UNL1       -0.4714
@<TRIPOS>BOND
     1    32    33    1
     2    33     1    1
     3     1     2   ar
     4     2     3   ar
     5     3     4   ar
     6     4     5   ar
     7     5     6   ar
     8     6    15    1
     9    15    16   ar
    10    16    17    1
    11    16    18   ar
    12    18    19   ar
    13    19    20   ar
    14    20    21    1
    15     4     7    2
    16     7     8    1
    17     8     9    1
    18     9    10    2
    19    10    11    1
    20    11    12    2
    21    11    13   am
    22    13    22    1
    23    22    23   ar
    24    23    24   ar
    25    24    25   ar
    26    25    26   ar
    27    26    27   ar
    28    27    28    1
    29    28    29    1
    30    28    30    1
    31    28    31    1
    32    13    14    1
    33     6     1   ar
    34    20    15   ar
    35    14     9    1
    36    14     3    2
    37    27    22   ar
@<TRIPOS>MOLECULE
*****
 33 37 0 0 0
SMALL
GASTEIGER

@<TRIPOS>ATOM
      1 C          63.8370   89.0210   13.0548 C.ar    1  UNL1        0.1389
      2 C          63.4176   87.5964   12.8433 C.ar    1  UNL1        0.0397
      3 C          63.5702   86.5972   13.9516 C.ar    1  UNL1        0.0353
      4 C          64.1421   87.0225   15.2714 C.ar    1  UNL1        0.0779
      5 C          64.5615   88.4471   15.4829 C.ar    1  UNL1        0.0219
      6 C          64.4089   89.4463   14.3746 C.ar    1  UNL1        0.0394
      7 N          64.2947   86.0233   16.3797 N.2     1  UNL1       -0.2641
      8 C          63.8754   84.5988   16.1681 C.3     1  UNL1        0.1696
      9 C          63.3034   84.1734   14.8483 C.2     1  UNL1        0.0912
     10 N          62.8062   82.8489   14.3499 N.am    1  UNL1       -0.1628
     11 C          62.3464   83.0295   12.9336 C.2     1  UNL1        0.3349
     12 O          61.7740   81.9615   12.0495 O.2     1  UNL1       -0.2497
     13 N          62.5593   84.4656   12.5567 N.am    1  UNL1       -0.2196
     14 C          63.1508   85.1726   13.7400 C.2     1  UNL1        0.0743
     15 C          64.8283   90.8709   14.5862 C.ar    1  UNL1        0.0526
     16 C          65.6418   91.7007   13.6377 C.ar    1  UNL1        0.1007
     17 C          66.1787   91.2516   12.3110 C.3     1  UNL1        0.0557
     18 N          65.8241   93.0584   14.2487 N.ar    1  UNL1       -0.0817
     19 O          65.1233   93.0677   15.5750 O.2     1  UNL1       -0.3581
     20 C          64.5079   91.7158   15.7835 C.ar    1  UNL1        0.1545
     21 C          63.7118   91.2844   16.9794 C.3     1  UNL1        0.0754
     22 C          62.2374   85.0859   11.2294 C.ar    1  UNL1        0.0556
     23 C          61.2688   86.2285   11.1508 C.ar    1  UNL1        0.0150
     24 C          60.9468   86.8488    9.8235 C.ar    1  UNL1        0.0013
     25 C          61.5934   86.3265    8.5749 C.ar    1  UNL1       -0.0002
     26 C          62.5620   85.1838    8.6536 C.ar    1  UNL1       -0.0030
     27 C          62.8840   84.5635    9.9808 C.ar    1  UNL1       -0.0087
     28 C          63.8525   83.4209   10.0594 C.3     1  UNL1        0.0201
     29 C          64.8076   84.2833   10.8301 C.3     1  UNL1        0.0044
     30 C          62.8975   82.5583    9.2886 C.3     1  UNL1        0.0044
     31 C          64.8211   82.2781   10.1379 C.3     1  UNL1        0.0044
     32 C          62.3165   90.4622   11.5183 C.3     1  UNL1        0.2525
     33 O          63.6844   90.0202   11.9465 O.3     1  UNL1       -0.4714
@<TRIPOS>BOND
     1    32    33    1
     2    33     1    1
     3     1     2   ar
     4     2     3   ar
     5     3     4   ar
     6     4     5   ar
     7     5     6   ar
     8     6    15    1
     9    15    16   ar
    10    16    17    1
    11    16    18   ar
    12    18    19   ar
    13    19    20   ar
    14    20    21    1
    15     4     7    2
    16     7     8    1
    17     8     9    1
    18     9    10    2
    19    10    11    1
    20    11    12    2
    21    11    13   am
    22    13    22    1
    23    22    23   ar
    24    23    24   ar
    25    24    25   ar
    26    25    26   ar
    27    26    27   ar
    28    27    28    1
    29    28    29    1
    30    28    30    1
    31    28    31    1
    32    13    14    1
    33     6     1   ar
    34    20    15   ar
    35    14     9    1
    36    14     3    2
    37    27    22   ar
