@<TRIPOS>MOLECULE
*****
 32 35 0 0 0
SMALL
GASTEIGER

@<TRIPOS>ATOM
      1 O          63.0640   86.8568   16.3705 O.2     1  UNL1       -0.2733
      2 C          64.2048   86.6686   15.4149 C.2     1  UNL1        0.2426
      3 N          64.6466   87.8051   14.5413 N.am    1  UNL1       -0.3023
      4 H          65.3954   87.6816   13.9141 H       1  UNL1        0.1495
      5 C          64.9038   85.3440   15.3330 C.3     1  UNL1        0.1759
      6 N          64.6918   84.4565   14.1424 N.am    1  UNL1       -0.2931
      7 C          63.7276   83.3104   14.2236 C.2     1  UNL1        0.2462
      8 O          62.9754   83.0517   15.4953 O.2     1  UNL1       -0.2701
      9 H          65.1855   84.6262   13.3077 H       1  UNL1        0.1502
     10 C          63.5155   82.4229   13.0330 C.ar    1  UNL1        0.0535
     11 C          63.9284   82.8877   11.6680 C.ar    1  UNL1        0.0068
     12 C          63.7164   82.0002   10.4775 C.ar    1  UNL1        0.0298
     13 C          63.0914   80.6479   10.6519 C.ar    1  UNL1        0.1401
     14 F          62.8794   79.7604    9.4614 F       1  UNL1       -0.2042
     15 C          62.6785   80.1830   12.0170 C.ar    1  UNL1        0.0298
     16 C          62.8906   81.0705   13.2075 C.ar    1  UNL1        0.0068
     17 C          63.9477   89.1297   14.6232 C.3     1  UNL1        0.0981
     18 C          64.1015   90.1288   13.5150 C.3     1  UNL1        0.0651
     19 C          63.3239   89.9635   12.2429 C.ar    1  UNL1       -0.0107
     20 C          62.3924   88.7992   12.0792 C.ar    1  UNL1       -0.0034
     21 C          61.6148   88.6340   10.8072 C.ar    1  UNL1       -0.0003
     22 C          61.7687   89.6330    9.6989 C.ar    1  UNL1        0.0005
     23 C          62.7001   90.7973    9.8627 C.ar    1  UNL1        0.0062
     24 C          63.4777   90.9625   11.1346 C.ar    1  UNL1        0.0258
     25 S          64.4092   92.1268   11.2984 S.3     1  UNL1       -0.0875
     26 C          65.1868   92.2921   12.5704 C.ar    1  UNL1        0.0259
     27 C          66.1183   93.4564   12.7342 C.ar    1  UNL1        0.0070
     28 C          66.8959   93.6216   14.0061 C.ar    1  UNL1        0.0119
     29 C          66.7421   92.6226   15.1144 C.ar    1  UNL1        0.0574
     30 CL         67.5197   92.7878   16.3864 Cl      1  UNL1       -0.0823
     31 C          65.8106   91.4583   14.9507 C.ar    1  UNL1        0.0080
     32 C          65.0330   91.2930   13.6787 C.ar    1  UNL1       -0.0099
@<TRIPOS>BOND
     1     1     2    2
     2     2     5    1
     3     5     6    1
     4     6     7   am
     5     7     8    2
     6     7    10    1
     7    10    11   ar
     8    11    12   ar
     9    12    13   ar
    10    13    14    1
    11    13    15   ar
    12    15    16   ar
    13     2     3   am
    14     3    17    1
    15    17    18    1
    16    18    19    1
    17    19    20   ar
    18    20    21   ar
    19    21    22   ar
    20    22    23   ar
    21    23    24   ar
    22    24    25    1
    23    25    26    1
    24    26    27   ar
    25    27    28   ar
    26    28    29   ar
    27    29    30    1
    28    29    31   ar
    29    31    32   ar
    30    16    10   ar
    31    32    18    1
    32    24    19   ar
    33    32    26   ar
    34     6     9    1
    35     3     4    1
@<TRIPOS>MOLECULE
*****
 32 35 0 0 0
SMALL
GASTEIGER

@<TRIPOS>ATOM
      1 O          62.4151   87.5558   17.0187 O.2     1  UNL1       -0.2733
      2 C          63.4739   87.0934   16.0622 C.2     1  UNL1        0.2426
      3 N          64.0649   88.0559   15.0750 N.am    1  UNL1       -0.3023
      4 H          64.7599   87.7524   14.4472 H       1  UNL1        0.1495
      5 C          63.9419   85.6686   16.0928 C.3     1  UNL1        0.1759
      6 N          63.5142   84.7154   15.0164 N.am    1  UNL1       -0.2931
      7 C          64.5301   84.1483   14.0698 C.2     1  UNL1        0.2462
      8 O          65.9738   84.5343   14.1995 O.2     1  UNL1       -0.2701
      9 H          62.5667   84.4621   14.9313 H       1  UNL1        0.1502
     10 C          64.1025   83.1951   12.9934 C.ar    1  UNL1        0.0535
     11 C          64.4798   83.4579   11.5656 C.ar    1  UNL1        0.0068
     12 C          64.0521   82.5047   10.4893 C.ar    1  UNL1        0.0298
     13 C          63.2471   81.2889   10.8406 C.ar    1  UNL1        0.1401
     14 F          62.8194   80.3357    9.7642 F       1  UNL1       -0.2042
     15 C          62.8697   81.0261   12.2684 C.ar    1  UNL1        0.0298
     16 C          63.2974   81.9793   13.3448 C.ar    1  UNL1        0.0068
     17 C          63.5970   89.4806   15.0444 C.3     1  UNL1        0.0981
     18 C          63.9825   90.3722   13.9013 C.3     1  UNL1        0.0651
     19 C          65.0142   91.4428   14.1000 C.ar    1  UNL1       -0.0107
     20 C          65.6605   91.6217   15.4418 C.ar    1  UNL1       -0.0034
     21 C          66.6923   92.6922   15.6404 C.ar    1  UNL1       -0.0003
     22 C          67.0777   93.5838   14.4974 C.ar    1  UNL1        0.0005
     23 C          66.4314   93.4048   13.1557 C.ar    1  UNL1        0.0062
     24 C          65.3997   92.3343   12.9570 C.ar    1  UNL1        0.0258
     25 S          64.7533   92.1554   11.6152 S.3     1  UNL1       -0.0875
     26 C          63.7216   91.0849   11.4166 C.ar    1  UNL1        0.0259
     27 C          63.0752   90.9059   10.0748 C.ar    1  UNL1        0.0070
     28 C          62.0435   89.8354    9.8761 C.ar    1  UNL1        0.0119
     29 C          61.6581   88.9438   11.0192 C.ar    1  UNL1        0.0574
     30 CL         60.6264   87.8733   10.8205 Cl      1  UNL1       -0.0823
     31 C          62.3044   89.1227   12.3609 C.ar    1  UNL1        0.0080
     32 C          63.3362   90.1933   12.5596 C.ar    1  UNL1       -0.0099
@<TRIPOS>BOND
     1     1     2    2
     2     2     5    1
     3     5     6    1
     4     6     7   am
     5     7     8    2
     6     7    10    1
     7    10    11   ar
     8    11    12   ar
     9    12    13   ar
    10    13    14    1
    11    13    15   ar
    12    15    16   ar
    13     2     3   am
    14     3    17    1
    15    17    18    1
    16    18    19    1
    17    19    20   ar
    18    20    21   ar
    19    21    22   ar
    20    22    23   ar
    21    23    24   ar
    22    24    25    1
    23    25    26    1
    24    26    27   ar
    25    27    28   ar
    26    28    29   ar
    27    29    30    1
    28    29    31   ar
    29    31    32   ar
    30    16    10   ar
    31    32    18    1
    32    24    19   ar
    33    32    26   ar
    34     6     9    1
    35     3     4    1
@<TRIPOS>MOLECULE
*****
 32 35 0 0 0
SMALL
GASTEIGER

@<TRIPOS>ATOM
      1 O          62.7647   90.0775   14.5400 O.2     1  UNL1       -0.2733
      2 C          63.5055   90.4235   13.2824 C.2     1  UNL1        0.2426
      3 N          62.9907   89.9518   11.9548 N.am    1  UNL1       -0.3023
      4 H          63.4769   90.1790   11.1295 H       1  UNL1        0.1495
      5 C          64.7611   91.2413   13.3525 C.3     1  UNL1        0.1759
      6 N          65.0578   92.2527   12.2852 N.am    1  UNL1       -0.2931
      7 C          66.4519   92.7810   12.1194 C.2     1  UNL1        0.2462
      8 O          67.5491   92.2978   13.0207 O.2     1  UNL1       -0.2701
      9 H          64.3376   92.5698   11.6936 H       1  UNL1        0.1502
     10 C          66.7486   93.7924   11.0522 C.ar    1  UNL1        0.0535
     11 C          66.3408   95.2235   11.2409 C.ar    1  UNL1        0.0068
     12 C          66.6376   96.2349   10.1737 C.ar    1  UNL1        0.0298
     13 C          67.3421   95.8153    8.9177 C.ar    1  UNL1        0.1401
     14 F          67.6389   96.8267    7.8505 F       1  UNL1       -0.2042
     15 C          67.7499   94.3842    8.7290 C.ar    1  UNL1        0.0298
     16 C          67.4531   93.3728    9.7962 C.ar    1  UNL1        0.0068
     17 C          61.7352   89.1341   11.8848 C.3     1  UNL1        0.0981
     18 C          61.7306   87.8288   11.1457 C.3     1  UNL1        0.0651
     19 C          61.0072   87.7106    9.8369 C.ar    1  UNL1       -0.0107
     20 C          60.2886   88.8975    9.2672 C.ar    1  UNL1       -0.0034
     21 C          59.5654   88.7792    7.9585 C.ar    1  UNL1       -0.0003
     22 C          59.5607   87.4739    7.2194 C.ar    1  UNL1        0.0005
     23 C          60.2793   86.2870    7.7891 C.ar    1  UNL1        0.0062
     24 C          61.0026   86.4053    9.0979 C.ar    1  UNL1        0.0258
     25 S          61.7213   85.2182    9.6676 S.3     1  UNL1       -0.0875
     26 C          62.4445   85.3365   10.9764 C.ar    1  UNL1        0.0259
     27 C          63.1632   84.1495   11.5462 C.ar    1  UNL1        0.0070
     28 C          63.8864   84.2678   12.8549 C.ar    1  UNL1        0.0119
     29 C          63.8911   85.5731   13.5939 C.ar    1  UNL1        0.0574
     30 CL         64.6143   85.6914   14.9027 Cl      1  UNL1       -0.0823
     31 C          63.1725   86.7601   13.0242 C.ar    1  UNL1        0.0080
     32 C          62.4492   86.6418   11.7154 C.ar    1  UNL1       -0.0099
@<TRIPOS>BOND
     1     1     2    2
     2     2     5    1
     3     5     6    1
     4     6     7   am
     5     7     8    2
     6     7    10    1
     7    10    11   ar
     8    11    12   ar
     9    12    13   ar
    10    13    14    1
    11    13    15   ar
    12    15    16   ar
    13     2     3   am
    14     3    17    1
    15    17    18    1
    16    18    19    1
    17    19    20   ar
    18    20    21   ar
    19    21    22   ar
    20    22    23   ar
    21    23    24   ar
    22    24    25    1
    23    25    26    1
    24    26    27   ar
    25    27    28   ar
    26    28    29   ar
    27    29    30    1
    28    29    31   ar
    29    31    32   ar
    30    16    10   ar
    31    32    18    1
    32    24    19   ar
    33    32    26   ar
    34     6     9    1
    35     3     4    1
@<TRIPOS>MOLECULE
*****
 32 35 0 0 0
SMALL
GASTEIGER

@<TRIPOS>ATOM
      1 O          62.7154   89.4943   15.8538 O.2     1  UNL1       -0.2733
      2 C          63.9194   89.7477   14.9958 C.2     1  UNL1        0.2426
      3 N          64.6009   88.6049   14.3033 N.am    1  UNL1       -0.3023
      4 H          65.3911   88.7713   13.7401 H       1  UNL1        0.1495
      5 C          64.4420   91.1441   14.8303 C.3     1  UNL1        0.1759
      6 N          64.9447   91.6032   13.4938 N.am    1  UNL1       -0.2931
      7 C          65.8577   92.7899   13.4031 C.2     1  UNL1        0.2462
      8 O          66.2678   93.5175   14.6490 O.2     1  UNL1       -0.2701
      9 H          64.6755   91.1257   12.6760 H       1  UNL1        0.1502
     10 C          66.3604   93.2490   12.0665 C.ar    1  UNL1        0.0535
     11 C          66.1678   94.6748   11.6422 C.ar    1  UNL1        0.0068
     12 C          66.6706   95.1339   10.3056 C.ar    1  UNL1        0.0298
     13 C          67.3660   94.1673    9.3934 C.ar    1  UNL1        0.1401
     14 F          67.8687   94.6265    8.0568 F       1  UNL1       -0.2042
     15 C          67.5586   92.7416    9.8178 C.ar    1  UNL1        0.0298
     16 C          67.0558   92.2825   11.1544 C.ar    1  UNL1        0.0068
     17 C          64.0784   87.2087   14.4687 C.3     1  UNL1        0.0981
     18 C          63.4787   86.4886   13.2974 C.3     1  UNL1        0.0651
     19 C          63.3868   84.9914   13.3044 C.ar    1  UNL1       -0.0107
     20 C          63.8946   84.2143   14.4827 C.ar    1  UNL1       -0.0034
     21 C          63.8027   82.7172   14.4896 C.ar    1  UNL1       -0.0003
     22 C          63.2030   81.9971   13.3184 C.ar    1  UNL1        0.0005
     23 C          62.6952   82.7742   12.1402 C.ar    1  UNL1        0.0062
     24 C          62.7871   84.2713   12.1332 C.ar    1  UNL1        0.0258
     25 S          62.2793   85.0484   10.9549 S.3     1  UNL1       -0.0875
     26 C          62.3712   86.5456   10.9479 C.ar    1  UNL1        0.0259
     27 C          61.8634   87.3227    9.7697 C.ar    1  UNL1        0.0070
     28 C          61.9553   88.8199    9.7627 C.ar    1  UNL1        0.0119
     29 C          62.5550   89.5399   10.9339 C.ar    1  UNL1        0.0574
     30 CL         62.6468   91.0371   10.9270 Cl      1  UNL1       -0.0823
     31 C          63.0628   88.7629   12.1122 C.ar    1  UNL1        0.0080
     32 C          62.9709   87.2657   12.1192 C.ar    1  UNL1       -0.0099
@<TRIPOS>BOND
     1     1     2    2
     2     2     5    1
     3     5     6    1
     4     6     7   am
     5     7     8    2
     6     7    10    1
     7    10    11   ar
     8    11    12   ar
     9    12    13   ar
    10    13    14    1
    11    13    15   ar
    12    15    16   ar
    13     2     3   am
    14     3    17    1
    15    17    18    1
    16    18    19    1
    17    19    20   ar
    18    20    21   ar
    19    21    22   ar
    20    22    23   ar
    21    23    24   ar
    22    24    25    1
    23    25    26    1
    24    26    27   ar
    25    27    28   ar
    26    28    29   ar
    27    29    30    1
    28    29    31   ar
    29    31    32   ar
    30    16    10   ar
    31    32    18    1
    32    24    19   ar
    33    32    26   ar
    34     6     9    1
    35     3     4    1
@<TRIPOS>MOLECULE
*****
 32 35 0 0 0
SMALL
GASTEIGER

@<TRIPOS>ATOM
      1 O          62.4435   87.7046   16.9544 O.2     1  UNL1       -0.2733
      2 C          63.4791   87.1682   16.0112 C.2     1  UNL1        0.2426
      3 N          64.1037   88.0722   14.9901 N.am    1  UNL1       -0.3023
      4 H          64.7834   87.7200   14.3710 H       1  UNL1        0.1495
      5 C          63.8901   85.7276   16.0890 C.3     1  UNL1        0.1759
      6 N          63.5126   84.7796   14.9896 N.am    1  UNL1       -0.2931
      7 C          64.5399   84.3489   13.9850 C.2     1  UNL1        0.2462
      8 O          65.9446   84.8663   14.0798 O.2     1  UNL1       -0.2701
      9 H          62.5906   84.4400   14.9273 H       1  UNL1        0.1502
     10 C          64.1624   83.4009   12.8855 C.ar    1  UNL1        0.0535
     11 C          63.5480   82.0735   13.2179 C.ar    1  UNL1        0.0068
     12 C          63.1706   81.1254   12.1184 C.ar    1  UNL1        0.0298
     13 C          63.4075   81.5048   10.6867 C.ar    1  UNL1        0.1401
     14 F          63.0300   80.5567    9.5873 F       1  UNL1       -0.2042
     15 C          64.0219   82.8322   10.3544 C.ar    1  UNL1        0.0298
     16 C          64.3993   83.7802   11.4538 C.ar    1  UNL1        0.0068
     17 C          63.6928   89.5126   14.9122 C.3     1  UNL1        0.0981
     18 C          63.8877   90.2804   13.6384 C.3     1  UNL1        0.0651
     19 C          62.9362   90.0894   12.4945 C.ar    1  UNL1       -0.0107
     20 C          61.7899   89.1308   12.6245 C.ar    1  UNL1       -0.0034
     21 C          60.8385   88.9398   11.4807 C.ar    1  UNL1       -0.0003
     22 C          61.0334   89.7076   10.2069 C.ar    1  UNL1        0.0005
     23 C          62.1797   90.6662   10.0769 C.ar    1  UNL1        0.0062
     24 C          63.1311   90.8571   11.2207 C.ar    1  UNL1        0.0258
     25 S          64.2775   91.8158   11.0908 S.3     1  UNL1       -0.0875
     26 C          65.2289   92.0068   12.2346 C.ar    1  UNL1        0.0259
     27 C          66.3752   92.9654   12.1046 C.ar    1  UNL1        0.0070
     28 C          67.3266   93.1564   13.2484 C.ar    1  UNL1        0.0119
     29 C          67.1317   92.3886   14.5222 C.ar    1  UNL1        0.0574
     30 CL         68.0831   92.5795   15.6660 Cl      1  UNL1       -0.0823
     31 C          65.9855   91.4300   14.6522 C.ar    1  UNL1        0.0080
     32 C          65.0340   91.2390   13.5084 C.ar    1  UNL1       -0.0099
@<TRIPOS>BOND
     1     1     2    2
     2     2     5    1
     3     5     6    1
     4     6     7   am
     5     7     8    2
     6     7    10    1
     7    10    11   ar
     8    11    12   ar
     9    12    13   ar
    10    13    14    1
    11    13    15   ar
    12    15    16   ar
    13     2     3   am
    14     3    17    1
    15    17    18    1
    16    18    19    1
    17    19    20   ar
    18    20    21   ar
    19    21    22   ar
    20    22    23   ar
    21    23    24   ar
    22    24    25    1
    23    25    26    1
    24    26    27   ar
    25    27    28   ar
    26    28    29   ar
    27    29    30    1
    28    29    31   ar
    29    31    32   ar
    30    16    10   ar
    31    32    18    1
    32    24    19   ar
    33    32    26   ar
    34     6     9    1
    35     3     4    1
@<TRIPOS>MOLECULE
*****
 32 35 0 0 0
SMALL
GASTEIGER

@<TRIPOS>ATOM
      1 O          61.1819   85.5524    7.4183 O.2     1  UNL1       -0.2733
      2 C          60.2844   86.2014    8.4299 C.2     1  UNL1        0.2426
      3 N          60.6889   86.2437    9.8737 N.am    1  UNL1       -0.3023
      4 H          60.0999   86.6697   10.5376 H       1  UNL1        0.1495
      5 C          58.9825   86.8082    7.9976 C.3     1  UNL1        0.1759
      6 N          58.9574   87.8195    6.8901 N.am    1  UNL1       -0.2931
      7 C          59.4483   89.2151    7.1375 C.2     1  UNL1        0.2462
      8 O          59.9642   89.5994    8.4925 O.2     1  UNL1       -0.2701
      9 H          58.6187   87.5672    6.0008 H       1  UNL1        0.1502
     10 C          59.4232   90.2264    6.0300 C.ar    1  UNL1        0.0535
     11 C          60.6996   90.6285    5.3525 C.ar    1  UNL1        0.0068
     12 C          60.6745   91.6398    4.2449 C.ar    1  UNL1        0.0298
     13 C          59.3730   92.2490    3.8149 C.ar    1  UNL1        0.1401
     14 F          59.3479   93.2603    2.7074 F       1  UNL1       -0.2042
     15 C          58.0966   91.8469    4.4925 C.ar    1  UNL1        0.0298
     16 C          58.1217   90.8356    5.6000 C.ar    1  UNL1        0.0068
     17 C          61.9908   85.6370   10.3060 C.3     1  UNL1        0.0981
     18 C          62.6558   86.1072   11.5656 C.3     1  UNL1        0.0651
     19 C          62.8890   87.5721   11.7888 C.ar    1  UNL1       -0.0107
     20 C          62.4572   88.5668   10.7524 C.ar    1  UNL1       -0.0034
     21 C          62.6904   90.0316   10.9757 C.ar    1  UNL1       -0.0003
     22 C          63.3554   90.5017   12.2353 C.ar    1  UNL1        0.0005
     23 C          63.7872   89.5071   13.2718 C.ar    1  UNL1        0.0062
     24 C          63.5540   88.0423   13.0485 C.ar    1  UNL1        0.0258
     25 S          63.9858   87.0475   14.0849 S.3     1  UNL1       -0.0875
     26 C          63.7525   85.5827   13.8617 C.ar    1  UNL1        0.0259
     27 C          64.1843   84.5880   14.8981 C.ar    1  UNL1        0.0070
     28 C          63.9511   83.1232   14.6749 C.ar    1  UNL1        0.0119
     29 C          63.2861   82.6530   13.4152 C.ar    1  UNL1        0.0574
     30 CL         63.0529   81.1882   13.1920 Cl      1  UNL1       -0.0823
     31 C          62.8544   83.6476   12.3788 C.ar    1  UNL1        0.0080
     32 C          63.0876   85.1125   12.6020 C.ar    1  UNL1       -0.0099
@<TRIPOS>BOND
     1     1     2    2
     2     2     5    1
     3     5     6    1
     4     6     7   am
     5     7     8    2
     6     7    10    1
     7    10    11   ar
     8    11    12   ar
     9    12    13   ar
    10    13    14    1
    11    13    15   ar
    12    15    16   ar
    13     2     3   am
    14     3    17    1
    15    17    18    1
    16    18    19    1
    17    19    20   ar
    18    20    21   ar
    19    21    22   ar
    20    22    23   ar
    21    23    24   ar
    22    24    25    1
    23    25    26    1
    24    26    27   ar
    25    27    28   ar
    26    28    29   ar
    27    29    30    1
    28    29    31   ar
    29    31    32   ar
    30    16    10   ar
    31    32    18    1
    32    24    19   ar
    33    32    26   ar
    34     6     9    1
    35     3     4    1
@<TRIPOS>MOLECULE
*****
 32 35 0 0 0
SMALL
GASTEIGER

@<TRIPOS>ATOM
      1 O          61.1860   85.5046    7.4236 O.2     1  UNL1       -0.2733
      2 C          60.4247   86.1564    8.5396 C.2     1  UNL1        0.2426
      3 N          60.9813   86.1475    9.9325 N.am    1  UNL1       -0.3023
      4 H          60.4816   86.5754   10.6649 H       1  UNL1        0.1495
      5 C          59.1068   86.8172    8.2627 C.3     1  UNL1        0.1759
      6 N          58.9827   87.8005    7.1368 N.am    1  UNL1       -0.2931
      7 C          59.5654   89.1758    7.2745 C.2     1  UNL1        0.2462
      8 O          60.2722   89.5678    8.5381 O.2     1  UNL1       -0.2701
      9 H          58.5188   87.5433    6.3074 H       1  UNL1        0.1502
     10 C          59.4414   90.1591    6.1486 C.ar    1  UNL1        0.0535
     11 C          60.6649   90.6059    5.4048 C.ar    1  UNL1        0.0068
     12 C          60.5408   91.5893    4.2789 C.ar    1  UNL1        0.0298
     13 C          59.1932   92.1258    3.8968 C.ar    1  UNL1        0.1401
     14 F          59.0691   93.1091    2.7709 F       1  UNL1       -0.2042
     15 C          57.9697   91.6790    4.6406 C.ar    1  UNL1        0.0298
     16 C          58.0938   90.6957    5.7665 C.ar    1  UNL1        0.0068
     17 C          62.2991   85.4868   10.2094 C.3     1  UNL1        0.0981
     18 C          62.8281   85.4270   11.6117 C.3     1  UNL1        0.0651
     19 C          63.0116   84.1008   12.2882 C.ar    1  UNL1       -0.0107
     20 C          62.6661   82.8345   11.5623 C.ar    1  UNL1       -0.0034
     21 C          62.8496   81.5083   12.2388 C.ar    1  UNL1       -0.0003
     22 C          63.3786   81.4485   13.6411 C.ar    1  UNL1        0.0005
     23 C          63.7242   82.7149   14.3670 C.ar    1  UNL1        0.0062
     24 C          63.5407   84.0410   13.6905 C.ar    1  UNL1        0.0258
     25 S          63.8862   85.3075   14.4164 S.3     1  UNL1       -0.0875
     26 C          63.7027   86.6336   13.7399 C.ar    1  UNL1        0.0259
     27 C          64.0483   87.9000   14.4658 C.ar    1  UNL1        0.0070
     28 C          63.8648   89.2262   13.7893 C.ar    1  UNL1        0.0119
     29 C          63.3357   89.2859   12.3870 C.ar    1  UNL1        0.0574
     30 CL         63.1522   90.6121   11.7105 Cl      1  UNL1       -0.0823
     31 C          62.9902   88.0196   11.6611 C.ar    1  UNL1        0.0080
     32 C          63.1737   86.6934   12.3376 C.ar    1  UNL1       -0.0099
@<TRIPOS>BOND
     1     1     2    2
     2     2     5    1
     3     5     6    1
     4     6     7   am
     5     7     8    2
     6     7    10    1
     7    10    11   ar
     8    11    12   ar
     9    12    13   ar
    10    13    14    1
    11    13    15   ar
    12    15    16   ar
    13     2     3   am
    14     3    17    1
    15    17    18    1
    16    18    19    1
    17    19    20   ar
    18    20    21   ar
    19    21    22   ar
    20    22    23   ar
    21    23    24   ar
    22    24    25    1
    23    25    26    1
    24    26    27   ar
    25    27    28   ar
    26    28    29   ar
    27    29    30    1
    28    29    31   ar
    29    31    32   ar
    30    16    10   ar
    31    32    18    1
    32    24    19   ar
    33    32    26   ar
    34     6     9    1
    35     3     4    1
@<TRIPOS>MOLECULE
*****
 32 35 0 0 0
SMALL
GASTEIGER

@<TRIPOS>ATOM
      1 O          63.5415   91.2499   15.0247 O.2     1  UNL1       -0.2733
      2 C          64.6710   90.7924   14.1502 C.2     1  UNL1        0.2426
      3 N          64.4276   89.7603   13.0892 N.am    1  UNL1       -0.3023
      4 H          65.1689   89.4601   12.5152 H       1  UNL1        0.1495
      5 C          66.0441   91.3670   14.3365 C.3     1  UNL1        0.1759
      6 N          66.6048   92.3151   13.3184 N.am    1  UNL1       -0.2931
      7 C          65.7265   92.8471   12.2251 C.2     1  UNL1        0.2462
      8 O          64.2874   92.4310   12.1499 O.2     1  UNL1       -0.2701
      9 H          67.5494   92.5882   13.3678 H       1  UNL1        0.1502
     10 C          66.2873   93.7952   11.2069 C.ar    1  UNL1        0.0535
     11 C          66.1568   95.2758   11.4089 C.ar    1  UNL1        0.0068
     12 C          66.7175   96.2239   10.3907 C.ar    1  UNL1        0.0298
     13 C          67.4088   95.6915    9.1707 C.ar    1  UNL1        0.1401
     14 F          67.9696   96.6396    8.1525 F       1  UNL1       -0.2042
     15 C          67.5393   94.2109    8.9687 C.ar    1  UNL1        0.0298
     16 C          66.9785   93.2628    9.9869 C.ar    1  UNL1        0.0068
     17 C          63.0546   89.1857   12.9028 C.3     1  UNL1        0.0981
     18 C          62.8908   87.7849   12.3920 C.3     1  UNL1        0.0651
     19 C          63.4986   86.6371   13.1424 C.ar    1  UNL1       -0.0107
     20 C          64.2702   86.8900   14.4036 C.ar    1  UNL1       -0.0034
     21 C          64.8779   85.7422   15.1539 C.ar    1  UNL1       -0.0003
     22 C          64.7141   84.3414   14.6431 C.ar    1  UNL1        0.0005
     23 C          63.9426   84.0885   13.3819 C.ar    1  UNL1        0.0062
     24 C          63.3348   85.2363   12.6315 C.ar    1  UNL1        0.0258
     25 S          62.5632   84.9834   11.3703 S.3     1  UNL1       -0.0875
     26 C          61.9554   86.1312   10.6199 C.ar    1  UNL1        0.0259
     27 C          61.1838   85.8783    9.3587 C.ar    1  UNL1        0.0070
     28 C          60.5761   87.0261    8.6083 C.ar    1  UNL1        0.0119
     29 C          60.7399   88.4269    9.1192 C.ar    1  UNL1        0.0574
     30 CL         60.1321   89.5747    8.3688 Cl      1  UNL1       -0.0823
     31 C          61.5114   88.6799   10.3804 C.ar    1  UNL1        0.0080
     32 C          62.1193   87.5320   11.1308 C.ar    1  UNL1       -0.0099
@<TRIPOS>BOND
     1     1     2    2
     2     2     5    1
     3     5     6    1
     4     6     7   am
     5     7     8    2
     6     7    10    1
     7    10    11   ar
     8    11    12   ar
     9    12    13   ar
    10    13    14    1
    11    13    15   ar
    12    15    16   ar
    13     2     3   am
    14     3    17    1
    15    17    18    1
    16    18    19    1
    17    19    20   ar
    18    20    21   ar
    19    21    22   ar
    20    22    23   ar
    21    23    24   ar
    22    24    25    1
    23    25    26    1
    24    26    27   ar
    25    27    28   ar
    26    28    29   ar
    27    29    30    1
    28    29    31   ar
    29    31    32   ar
    30    16    10   ar
    31    32    18    1
    32    24    19   ar
    33    32    26   ar
    34     6     9    1
    35     3     4    1
@<TRIPOS>MOLECULE
*****
 32 35 0 0 0
SMALL
GASTEIGER

@<TRIPOS>ATOM
      1 O          61.3906   91.2028   10.8029 O.2     1  UNL1       -0.2733
      2 C          62.8333   90.8699   11.0429 C.2     1  UNL1        0.2426
      3 N          63.2093   89.5393   11.6245 N.am    1  UNL1       -0.3023
      4 H          64.1562   89.3208   11.7820 H       1  UNL1        0.1495
      5 C          63.9001   91.8676   10.7014 C.3     1  UNL1        0.1759
      6 N          65.0879   92.0335   11.6023 N.am    1  UNL1       -0.2931
      7 C          64.9217   91.9293   13.0894 C.2     1  UNL1        0.2462
      8 O          63.5677   91.6590   13.6755 O.2     1  UNL1       -0.2701
      9 H          65.9766   92.2109   11.2176 H       1  UNL1        0.1502
     10 C          66.1094   92.0952   13.9903 C.ar    1  UNL1        0.0535
     11 C          65.9102   92.3905   15.4473 C.ar    1  UNL1        0.0068
     12 C          67.0979   92.5564   16.3483 C.ar    1  UNL1        0.0298
     13 C          68.4850   92.4271   15.7921 C.ar    1  UNL1        0.1401
     14 F          69.6728   92.5930   16.6931 F       1  UNL1       -0.2042
     15 C          68.6843   92.1318   14.3351 C.ar    1  UNL1        0.0298
     16 C          67.4965   91.9659   13.4342 C.ar    1  UNL1        0.0068
     17 C          62.1425   88.5417   11.9661 C.3     1  UNL1        0.0981
     18 C          62.0090   87.2818   11.1630 C.3     1  UNL1        0.0651
     19 C          61.2193   87.2855    9.8876 C.ar    1  UNL1       -0.0107
     20 C          60.5631   88.5490    9.4155 C.ar    1  UNL1       -0.0034
     21 C          59.7734   88.5527    8.1402 C.ar    1  UNL1       -0.0003
     22 C          59.6399   87.2928    7.3371 C.ar    1  UNL1        0.0005
     23 C          60.2961   86.0293    7.8093 C.ar    1  UNL1        0.0062
     24 C          61.0858   86.0257    9.0845 C.ar    1  UNL1        0.0258
     25 S          61.7420   84.7621    9.5568 S.3     1  UNL1       -0.0875
     26 C          62.5317   84.7585   10.8320 C.ar    1  UNL1        0.0259
     27 C          63.1879   83.4950   11.3042 C.ar    1  UNL1        0.0070
     28 C          63.9776   83.4913   12.5795 C.ar    1  UNL1        0.0119
     29 C          64.1111   84.7512   13.3826 C.ar    1  UNL1        0.0574
     30 CL         64.9008   84.7475   14.6579 Cl      1  UNL1       -0.0823
     31 C          63.4549   86.0147   12.9104 C.ar    1  UNL1        0.0080
     32 C          62.6652   86.0184   11.6351 C.ar    1  UNL1       -0.0099
@<TRIPOS>BOND
     1     1     2    2
     2     2     5    1
     3     5     6    1
     4     6     7   am
     5     7     8    2
     6     7    10    1
     7    10    11   ar
     8    11    12   ar
     9    12    13   ar
    10    13    14    1
    11    13    15   ar
    12    15    16   ar
    13     2     3   am
    14     3    17    1
    15    17    18    1
    16    18    19    1
    17    19    20   ar
    18    20    21   ar
    19    21    22   ar
    20    22    23   ar
    21    23    24   ar
    22    24    25    1
    23    25    26    1
    24    26    27   ar
    25    27    28   ar
    26    28    29   ar
    27    29    30    1
    28    29    31   ar
    29    31    32   ar
    30    16    10   ar
    31    32    18    1
    32    24    19   ar
    33    32    26   ar
    34     6     9    1
    35     3     4    1
