@<TRIPOS>MOLECULE
*****
 55 59 0 0 0
SMALL
GASTEIGER

@<TRIPOS>ATOM
      1 C          63.2349   90.7277   10.9252 C.3     1  UNL1        0.0760
      2 C          61.1783   89.7010    9.7143 C.2     1  UNL1        0.2424
      3 O          60.4281   89.6722   11.0129 O.2     1  UNL1       -0.2733
      4 N          62.5817   90.2287    9.6704 N.am    1  UNL1       -0.3042
      5 H          63.0741   90.2476    8.8181 H       1  UNL1        0.1494
      6 C          60.5251   89.2020    8.4596 C.3     1  UNL1        0.1743
      7 N          58.1393   90.8269    5.7360 N.am    1  UNL1       -0.2567
      8 C          56.8750   90.5017    4.9972 C.3     1  UNL1        0.1168
      9 C          58.7000   89.8518    6.7284 C.2     1  UNL1        0.3047
     10 O          57.9965   88.5515    6.9820 O.2     1  UNL1       -0.2526
     11 N          59.9643   90.1771    7.4672 N.am    1  UNL1       -0.2809
     12 H          60.4260   91.0305    7.3007 H       1  UNL1        0.1514
     13 C          58.8428   92.1272    5.4825 C.3     1  UNL1        0.1413
     14 C          61.8787   92.0564    3.0649 C.ar    1  UNL1        0.0875
     15 N          61.2506   91.7369    4.3891 N.ar    1  UNL1       -0.2453
     16 C          59.8365   92.2366    4.3641 C.ar    1  UNL1        0.0858
     17 C          59.5906   92.8650    3.0245 C.ar    1  UNL1        0.0530
     18 S          60.8527   92.7536    2.2215 S.2     1  UNL1       -0.0705
     19 C          63.9682   90.5191    3.2085 C.3     1  UNL1        0.0069
     20 C          63.2856   91.7352    2.6560 C.3     1  UNL1        0.0465
     21 C          64.0100   92.6300    1.6944 C.3     1  UNL1        0.0069
     22 C          60.4326   87.7280    8.1972 C.3     1  UNL1        0.1564
     23 N          61.1940   86.7639    9.0579 N.ar    1  UNL1       -0.2472
     24 C          62.3913   85.9634    8.6388 C.ar    1  UNL1        0.0968
     25 C          62.8290   85.1357    9.8106 C.ar    1  UNL1        0.0427
     26 C          61.9021   85.4245   10.9541 C.ar    1  UNL1        0.1217
     27 N          60.8916   86.4308   10.4889 N.ar    1  UNL1       -0.1676
     28 C          63.5216   89.7780   12.0502 C.3     1  UNL1        0.0216
     29 C          62.9775   90.0528   13.4207 C.3     1  UNL1        0.0217
     30 C          63.8178   89.7726   14.6314 C.3     1  UNL1        0.0792
     31 N          64.2147   88.3637   14.9591 N.am    1  UNL1       -0.2720
     32 C          63.4780   87.6051   16.0230 C.2     1  UNL1        0.4019
     33 O          62.3444   88.2555   16.7591 O.2     1  UNL1       -0.2264
     34 H          64.9588   87.9369   14.4759 H       1  UNL1        0.1527
     35 O          63.8749   86.1962   16.3507 O.3     1  UNL1       -0.4291
     36 C          62.9628   85.0588   15.9984 C.3     1  UNL1        0.2447
     37 C          63.2584   84.2031   14.8024 C.ar    1  UNL1        0.0714
     38 C          64.3822   84.4053   13.8297 C.ar    1  UNL1        0.1053
     39 N          64.3005   83.3222   12.7952 N.ar    1  UNL1       -0.2350
     40 C          63.1262   82.4506   13.1285 C.ar    1  UNL1        0.1343
     41 S          62.4821   82.9950   14.3690 S.2     1  UNL1       -0.0652
     42 C          64.2611   90.9013   15.5142 C.3     1  UNL1        0.0460
     43 C          65.5752   91.5792   15.2620 C.ar    1  UNL1       -0.0205
     44 C          66.1639   92.4849   16.3027 C.ar    1  UNL1       -0.0042
     45 C          67.4780   93.1627   16.0505 C.ar    1  UNL1       -0.0003
     46 C          68.2034   92.9349   14.7575 C.ar    1  UNL1       -0.0000
     47 C          67.6148   92.0292   13.7168 C.ar    1  UNL1       -0.0003
     48 C          66.3007   91.3513   13.9690 C.ar    1  UNL1       -0.0042
     49 C          63.6014   92.1765   11.0548 C.3     1  UNL1        0.0459
     50 C          64.9850   92.6347   10.7004 C.ar    1  UNL1       -0.0205
     51 C          66.0212   91.6353   10.2794 C.ar    1  UNL1       -0.0042
     52 C          67.4049   92.0935    9.9250 C.ar    1  UNL1       -0.0003
     53 C          67.7523   93.5512    9.9915 C.ar    1  UNL1       -0.0000
     54 C          66.7160   94.5507   10.4125 C.ar    1  UNL1       -0.0003
     55 C          65.3324   94.0925   10.7669 C.ar    1  UNL1       -0.0042
@<TRIPOS>BOND
     1    19    20    1
     2    20    21    1
     3    20    14    1
     4    14    15   ar
     5    15    16   ar
     6    16    13    1
     7    13     7    1
     8     7     8    1
     9     7     9   am
    10     9    10    2
    11     9    11   am
    12    11     6    1
    13     6    22    1
    14    22    23    1
    15    23    24   ar
    16    24    25   ar
    17    25    26   ar
    18    26    27   ar
    19     6     2    1
    20     2     3    2
    21     2     4   am
    22     4     1    1
    23     1    28    1
    24    28    29    1
    25    30    29    1
    26    30    42    1
    27    42    43    1
    28    43    44   ar
    29    44    45   ar
    30    45    46   ar
    31    46    47   ar
    32    47    48   ar
    33    30    31    1
    34    31    32   am
    35    32    33    2
    36    32    35    1
    37    35    36    1
    38    36    37    1
    39    37    38   ar
    40    38    39   ar
    41    39    40   ar
    42    40    41   ar
    43     1    49    1
    44    49    50    1
    45    50    51   ar
    46    51    52   ar
    47    52    53   ar
    48    53    54   ar
    49    54    55   ar
    50    16    17   ar
    51    17    18   ar
    52    18    14   ar
    53    27    23   ar
    54    48    43   ar
    55    41    37   ar
    56    55    50   ar
    57    11    12    1
    58     4     5    1
    59    31    34    1
@<TRIPOS>MOLECULE
*****
 55 59 0 0 0
SMALL
GASTEIGER

@<TRIPOS>ATOM
      1 C          61.8561   87.4256   11.1449 C.3     1  UNL1        0.0760
      2 C          62.9588   89.4240   12.3862 C.2     1  UNL1        0.2424
      3 O          62.4660   90.3577   11.3207 O.2     1  UNL1       -0.2733
      4 N          62.6539   87.9579   12.2983 N.am    1  UNL1       -0.3042
      5 H          62.9774   87.3450   12.9976 H       1  UNL1        0.1494
      6 C          63.7566   89.9562   13.5395 C.3     1  UNL1        0.1743
      7 N          66.8621   92.3841   13.9989 N.am    1  UNL1       -0.2567
      8 C          67.3507   93.4318   14.9548 C.3     1  UNL1        0.1168
      9 C          65.5537   91.6940   14.2472 C.2     1  UNL1        0.3047
     10 O          64.7337   92.0516   15.4513 O.2     1  UNL1       -0.2526
     11 N          65.0652   90.6464   13.2913 N.am    1  UNL1       -0.2809
     12 H          65.6033   90.4117   12.5010 H       1  UNL1        0.1514
     13 C          67.6821   92.0265   12.7948 C.3     1  UNL1        0.1413
     14 C          67.0046   94.6006    9.9697 C.ar    1  UNL1        0.0875
     15 N          66.9324   94.1862   11.4095 N.ar    1  UNL1       -0.2453
     16 C          67.5446   92.8222   11.5307 C.ar    1  UNL1        0.0858
     17 C          67.9954   92.3936   10.1657 C.ar    1  UNL1        0.0530
     18 S          67.6616   93.4927    9.2010 S.2     1  UNL1       -0.0705
     19 C          65.3101   96.5698   10.0007 C.3     1  UNL1        0.0069
     20 C          66.5073   95.8955    9.3989 C.3     1  UNL1        0.0465
     21 C          67.2071   96.5161    8.2262 C.3     1  UNL1        0.0069
     22 C          63.2460   89.7984   14.9410 C.3     1  UNL1        0.1564
     23 N          63.3434   88.4693   15.6295 N.ar    1  UNL1       -0.2472
     24 C          62.8895   88.1646   17.0264 C.ar    1  UNL1        0.0968
     25 C          63.1774   86.7185   17.3023 C.ar    1  UNL1        0.0427
     26 C          63.8092   86.1296   16.0759 C.ar    1  UNL1        0.1217
     27 N          63.9117   87.2116   15.0421 N.ar    1  UNL1       -0.1676
     28 C          60.6185   88.1433   10.6944 C.3     1  UNL1        0.0216
     29 C          60.4938   88.6028    9.2720 C.3     1  UNL1        0.0217
     30 C          59.6562   87.8227    8.3025 C.3     1  UNL1        0.0792
     31 N          58.7762   88.5420    7.3236 N.am    1  UNL1       -0.2720
     32 C          59.3336   89.6627    6.4967 C.2     1  UNL1        0.4019
     33 O          60.7709   90.0639    6.6489 O.2     1  UNL1       -0.2264
     34 H          57.8329   88.2787    7.2237 H       1  UNL1        0.1527
     35 O          58.4537   90.3820    5.5178 O.3     1  UNL1       -0.4291
     36 C          58.7547   91.8025    5.1418 C.3     1  UNL1        0.2447
     37 C          59.8191   92.1005    4.1278 C.ar    1  UNL1        0.0714
     38 C          61.2533   91.6671    4.2015 C.ar    1  UNL1        0.1053
     39 N          61.9568   92.1828    2.9813 N.ar    1  UNL1       -0.2350
     40 C          60.9574   92.9350    2.1533 C.ar    1  UNL1        0.1343
     41 S          59.6363   92.8841    2.8619 S.2     1  UNL1       -0.0652
     42 C          59.6985   86.3234    8.3119 C.3     1  UNL1        0.0460
     43 C          60.7182   85.5966    7.4859 C.ar    1  UNL1       -0.0205
     44 C          60.2834   84.7813    6.3043 C.ar    1  UNL1       -0.0042
     45 C          61.3031   84.0547    5.4785 C.ar    1  UNL1       -0.0003
     46 C          62.7576   84.1433    5.8342 C.ar    1  UNL1       -0.0000
     47 C          63.1924   84.9586    7.0157 C.ar    1  UNL1       -0.0003
     48 C          62.1727   85.6852    7.8416 C.ar    1  UNL1       -0.0042
     49 C          62.2961   86.1756   10.4421 C.3     1  UNL1        0.0459
     50 C          62.7552   84.9898   11.2378 C.ar    1  UNL1       -0.0205
     51 C          63.5862   83.9250   10.5854 C.ar    1  UNL1       -0.0042
     52 C          64.0454   82.7392   11.3811 C.ar    1  UNL1       -0.0003
     53 C          63.6735   82.6182   12.8292 C.ar    1  UNL1       -0.0000
     54 C          62.8424   83.6830   13.4816 C.ar    1  UNL1       -0.0003
     55 C          62.3833   84.8688   12.6859 C.ar    1  UNL1       -0.0042
@<TRIPOS>BOND
     1    19    20    1
     2    20    21    1
     3    20    14    1
     4    14    15   ar
     5    15    16   ar
     6    16    13    1
     7    13     7    1
     8     7     8    1
     9     7     9   am
    10     9    10    2
    11     9    11   am
    12    11     6    1
    13     6    22    1
    14    22    23    1
    15    23    24   ar
    16    24    25   ar
    17    25    26   ar
    18    26    27   ar
    19     6     2    1
    20     2     3    2
    21     2     4   am
    22     4     1    1
    23     1    28    1
    24    28    29    1
    25    30    29    1
    26    30    42    1
    27    42    43    1
    28    43    44   ar
    29    44    45   ar
    30    45    46   ar
    31    46    47   ar
    32    47    48   ar
    33    30    31    1
    34    31    32   am
    35    32    33    2
    36    32    35    1
    37    35    36    1
    38    36    37    1
    39    37    38   ar
    40    38    39   ar
    41    39    40   ar
    42    40    41   ar
    43     1    49    1
    44    49    50    1
    45    50    51   ar
    46    51    52   ar
    47    52    53   ar
    48    53    54   ar
    49    54    55   ar
    50    16    17   ar
    51    17    18   ar
    52    18    14   ar
    53    27    23   ar
    54    48    43   ar
    55    41    37   ar
    56    55    50   ar
    57    11    12    1
    58     4     5    1
    59    31    34    1
@<TRIPOS>MOLECULE
*****
 55 59 0 0 0
SMALL
GASTEIGER

@<TRIPOS>ATOM
      1 C          62.2655   86.0717   11.6950 C.3     1  UNL1        0.0760
      2 C          63.4595   87.8573   13.1565 C.2     1  UNL1        0.2424
      3 O          63.2435   88.8813   12.0820 O.2     1  UNL1       -0.2733
      4 N          62.9705   86.4525   12.9631 N.am    1  UNL1       -0.3042
      5 H          63.1123   85.7804   13.6683 H       1  UNL1        0.1494
      6 C          64.1646   88.2381   14.4246 C.3     1  UNL1        0.1743
      7 N          65.5547   91.8101   15.4532 N.am    1  UNL1       -0.2567
      8 C          65.2257   92.9250   16.4012 C.3     1  UNL1        0.1168
      9 C          64.6951   90.5816   15.4129 C.2     1  UNL1        0.3047
     10 O          63.5064   90.4679   16.3206 O.2     1  UNL1       -0.2526
     11 N          65.0242   89.4667   14.4649 N.am    1  UNL1       -0.2809
     12 H          65.8045   89.5413   13.8691 H       1  UNL1        0.1514
     13 C          66.7435   91.9238   14.5454 C.3     1  UNL1        0.1413
     14 C          67.0041   92.8631   10.7884 C.ar    1  UNL1        0.0875
     15 N          67.6449   92.5357   12.1045 N.ar    1  UNL1       -0.2453
     16 C          66.5531   92.2840   13.1018 C.ar    1  UNL1        0.0858
     17 C          65.2375   92.4558   12.4021 C.ar    1  UNL1        0.0530
     18 S          65.5162   92.8137   10.9723 S.2     1  UNL1       -0.0705
     19 C          67.4611   94.4814    8.8079 C.3     1  UNL1        0.0069
     20 C          67.7246   93.1835    9.5124 C.3     1  UNL1        0.0465
     21 C          68.7085   92.2062    8.9409 C.3     1  UNL1        0.0069
     22 C          64.0100   87.3903   15.6523 C.3     1  UNL1        0.1564
     23 N          63.8879   85.9007   15.5246 N.ar    1  UNL1       -0.2472
     24 C          62.7650   85.0594   16.0550 C.ar    1  UNL1        0.0968
     25 C          63.0503   83.6297   15.7023 C.ar    1  UNL1        0.0427
     26 C          64.3496   83.5873   14.9540 C.ar    1  UNL1        0.1217
     27 N          64.8672   84.9908   14.8442 N.ar    1  UNL1       -0.1676
     28 C          60.9049   86.6285   11.3972 C.3     1  UNL1        0.0216
     29 C          60.7714   87.9558   10.7113 C.3     1  UNL1        0.0217
     30 C          60.3189   88.0195    9.2825 C.3     1  UNL1        0.0792
     31 N          60.3871   89.3162    8.5314 N.am    1  UNL1       -0.2720
     32 C          59.5081   89.5377    7.3362 C.2     1  UNL1        0.4019
     33 O          58.5610   88.4626    6.8922 O.2     1  UNL1       -0.2264
     34 H          61.0087   90.0218    8.8228 H       1  UNL1        0.1527
     35 O          59.5762   90.8343    6.5852 O.3     1  UNL1       -0.4291
     36 C          59.2300   90.8750    5.1262 C.3     1  UNL1        0.2447
     37 C          60.1136   91.6149    4.1661 C.ar    1  UNL1        0.0714
     38 C          61.5832   91.3898    3.9676 C.ar    1  UNL1        0.1053
     39 N          62.0606   92.3456    2.9147 N.ar    1  UNL1       -0.2350
     40 C          60.8859   93.1616    2.4625 C.ar    1  UNL1        0.1343
     41 S          59.6826   92.7100    3.2360 S.2     1  UNL1       -0.0652
     42 C          59.7984   86.7867    8.6049 C.3     1  UNL1        0.0460
     43 C          60.7243   85.9284    7.7948 C.ar    1  UNL1       -0.0205
     44 C          60.1813   85.0827    6.6814 C.ar    1  UNL1       -0.0042
     45 C          61.1072   84.2244    5.8715 C.ar    1  UNL1       -0.0003
     46 C          62.5761   84.2120    6.1749 C.ar    1  UNL1       -0.0000
     47 C          63.1191   85.0577    7.2883 C.ar    1  UNL1       -0.0003
     48 C          62.1933   85.9160    8.0983 C.ar    1  UNL1       -0.0042
     49 C          62.9211   85.1342   10.7248 C.3     1  UNL1        0.0459
     50 C          62.9811   83.6657   11.0249 C.ar    1  UNL1       -0.0205
     51 C          62.2584   83.1138   12.2178 C.ar    1  UNL1       -0.0042
     52 C          62.3184   81.6454   12.5178 C.ar    1  UNL1       -0.0003
     53 C          63.1012   80.7288   11.6250 C.ar    1  UNL1       -0.0000
     54 C          63.8239   81.2807   10.4320 C.ar    1  UNL1       -0.0003
     55 C          63.7639   82.7492   10.1320 C.ar    1  UNL1       -0.0042
@<TRIPOS>BOND
     1    19    20    1
     2    20    21    1
     3    20    14    1
     4    14    15   ar
     5    15    16   ar
     6    16    13    1
     7    13     7    1
     8     7     8    1
     9     7     9   am
    10     9    10    2
    11     9    11   am
    12    11     6    1
    13     6    22    1
    14    22    23    1
    15    23    24   ar
    16    24    25   ar
    17    25    26   ar
    18    26    27   ar
    19     6     2    1
    20     2     3    2
    21     2     4   am
    22     4     1    1
    23     1    28    1
    24    28    29    1
    25    30    29    1
    26    30    42    1
    27    42    43    1
    28    43    44   ar
    29    44    45   ar
    30    45    46   ar
    31    46    47   ar
    32    47    48   ar
    33    30    31    1
    34    31    32   am
    35    32    33    2
    36    32    35    1
    37    35    36    1
    38    36    37    1
    39    37    38   ar
    40    38    39   ar
    41    39    40   ar
    42    40    41   ar
    43     1    49    1
    44    49    50    1
    45    50    51   ar
    46    51    52   ar
    47    52    53   ar
    48    53    54   ar
    49    54    55   ar
    50    16    17   ar
    51    17    18   ar
    52    18    14   ar
    53    27    23   ar
    54    48    43   ar
    55    41    37   ar
    56    55    50   ar
    57    11    12    1
    58     4     5    1
    59    31    34    1
@<TRIPOS>MOLECULE
*****
 55 59 0 0 0
SMALL
GASTEIGER

@<TRIPOS>ATOM
      1 C          62.5281   89.1102   11.0884 C.3     1  UNL1        0.0760
      2 C          60.5598   88.7934    9.4225 C.2     1  UNL1        0.2424
      3 O          59.5808   88.9813   10.5433 O.2     1  UNL1       -0.2733
      4 N          62.0334   88.8579    9.6950 N.am    1  UNL1       -0.3042
      5 H          62.6760   88.7346    8.9593 H       1  UNL1        0.1494
      6 C          60.0651   88.5412    8.0290 C.3     1  UNL1        0.1743
      7 N          58.6071   91.1356    5.4035 N.am    1  UNL1       -0.2567
      8 C          57.3008   91.4722    4.7475 C.3     1  UNL1        0.1168
      9 C          58.6830   90.0067    6.3883 C.2     1  UNL1        0.3047
     10 O          57.4525   89.2144    6.7171 O.2     1  UNL1       -0.2526
     11 N          59.9892   89.6701    7.0442 N.am    1  UNL1       -0.2809
     12 H          60.7968   90.1901    6.8284 H       1  UNL1        0.1514
     13 C          59.8376   91.9279    5.0747 C.3     1  UNL1        0.1413
     14 C          59.7953   93.1285    1.3838 C.ar    1  UNL1        0.0875
     15 N          59.0885   92.8313    2.6730 N.ar    1  UNL1       -0.2453
     16 C          60.1077   92.3403    3.6579 C.ar    1  UNL1        0.0858
     17 C          61.4445   92.3341    2.9774 C.ar    1  UNL1        0.0530
     18 S          61.2514   92.8212    1.5720 S.2     1  UNL1       -0.0705
     19 C          59.0258   95.1201   -0.0966 C.3     1  UNL1        0.0069
     20 C          59.1579   93.6427    0.1271 C.3     1  UNL1        0.0465
     21 C          58.6526   92.6796   -0.9059 C.3     1  UNL1        0.0069
     22 C          59.6463   87.1600    7.6204 C.3     1  UNL1        0.1564
     23 N          60.6831   86.1059    7.3675 N.ar    1  UNL1       -0.2472
     24 C          61.9391   85.8965    8.1602 C.ar    1  UNL1        0.0968
     25 C          62.6782   84.7373    7.5601 C.ar    1  UNL1        0.0427
     26 C          61.8789   84.2304    6.3964 C.ar    1  UNL1        0.1217
     27 N          60.6459   85.0762    6.2774 N.ar    1  UNL1       -0.1676
     28 C          62.9766   87.9629   11.9443 C.3     1  UNL1        0.0216
     29 C          62.2877   86.6346   11.8391 C.3     1  UNL1        0.0217
     30 C          62.9894   85.3880   12.2905 C.3     1  UNL1        0.0792
     31 N          62.6738   84.0730   11.6415 N.am    1  UNL1       -0.2720
     32 C          63.7141   83.3751   10.8163 C.2     1  UNL1        0.4019
     33 O          65.0698   83.9922   10.6401 O.2     1  UNL1       -0.2264
     34 H          61.7840   83.6679   11.7572 H       1  UNL1        0.1527
     35 O          63.3985   82.0600   10.1674 O.3     1  UNL1       -0.4291
     36 C          63.1345   80.8502   11.0138 C.3     1  UNL1        0.2447
     37 C          62.8487   81.0070   12.4779 C.ar    1  UNL1        0.0714
     38 C          63.8639   81.2634   13.5520 C.ar    1  UNL1        0.1053
     39 N          63.1400   81.3498   14.8630 N.ar    1  UNL1       -0.2350
     40 C          61.6774   81.1469   14.5991 C.ar    1  UNL1        0.1343
     41 S          61.4974   80.9351   13.1251 S.2     1  UNL1       -0.0652
     42 C          64.0066   85.4564   13.3907 C.3     1  UNL1        0.0460
     43 C          63.6130   85.9668   14.7453 C.ar    1  UNL1       -0.0205
     44 C          63.9256   87.3815   15.1336 C.ar    1  UNL1       -0.0042
     45 C          63.5320   87.8917   16.4881 C.ar    1  UNL1       -0.0003
     46 C          62.8260   86.9873   17.4543 C.ar    1  UNL1       -0.0000
     47 C          62.5135   85.5726   17.0660 C.ar    1  UNL1       -0.0003
     48 C          62.9070   85.0623   15.7115 C.ar    1  UNL1       -0.0042
     49 C          62.5742   90.5098   11.6260 C.3     1  UNL1        0.0459
     50 C          63.8786   91.0973   12.0772 C.ar    1  UNL1       -0.0205
     51 C          64.6842   91.9449   11.1378 C.ar    1  UNL1       -0.0042
     52 C          65.9886   92.5324   11.5890 C.ar    1  UNL1       -0.0003
     53 C          66.4873   92.2723   12.9795 C.ar    1  UNL1       -0.0000
     54 C          65.6816   91.4247   13.9190 C.ar    1  UNL1       -0.0003
     55 C          64.3772   90.8372   13.4678 C.ar    1  UNL1       -0.0042
@<TRIPOS>BOND
     1    19    20    1
     2    20    21    1
     3    20    14    1
     4    14    15   ar
     5    15    16   ar
     6    16    13    1
     7    13     7    1
     8     7     8    1
     9     7     9   am
    10     9    10    2
    11     9    11   am
    12    11     6    1
    13     6    22    1
    14    22    23    1
    15    23    24   ar
    16    24    25   ar
    17    25    26   ar
    18    26    27   ar
    19     6     2    1
    20     2     3    2
    21     2     4   am
    22     4     1    1
    23     1    28    1
    24    28    29    1
    25    30    29    1
    26    30    42    1
    27    42    43    1
    28    43    44   ar
    29    44    45   ar
    30    45    46   ar
    31    46    47   ar
    32    47    48   ar
    33    30    31    1
    34    31    32   am
    35    32    33    2
    36    32    35    1
    37    35    36    1
    38    36    37    1
    39    37    38   ar
    40    38    39   ar
    41    39    40   ar
    42    40    41   ar
    43     1    49    1
    44    49    50    1
    45    50    51   ar
    46    51    52   ar
    47    52    53   ar
    48    53    54   ar
    49    54    55   ar
    50    16    17   ar
    51    17    18   ar
    52    18    14   ar
    53    27    23   ar
    54    48    43   ar
    55    41    37   ar
    56    55    50   ar
    57    11    12    1
    58     4     5    1
    59    31    34    1
@<TRIPOS>MOLECULE
*****
 55 59 0 0 0
SMALL
GASTEIGER

@<TRIPOS>ATOM
      1 C          63.6342   89.4690   13.0980 C.3     1  UNL1        0.0760
      2 C          61.7376   88.3697   11.7035 C.2     1  UNL1        0.2424
      3 O          60.7784   89.4197   12.1803 O.2     1  UNL1       -0.2733
      4 N          63.1655   88.3943   12.1624 N.am    1  UNL1       -0.3042
      5 H          63.7951   87.7051   11.8494 H       1  UNL1        0.1494
      6 C          61.2689   87.2950   10.7679 C.3     1  UNL1        0.1743
      7 N          63.1488   84.6043    8.5371 N.am    1  UNL1       -0.2567
      8 C          63.1592   84.1146    7.1193 C.3     1  UNL1        0.1168
      9 C          62.2141   85.7048    8.9436 C.2     1  UNL1        0.3047
     10 O          61.2897   86.3155    7.9324 O.2     1  UNL1       -0.2526
     11 N          62.2037   86.1945   10.3614 N.am    1  UNL1       -0.2809
     12 H          62.8104   85.7936   11.0251 H       1  UNL1        0.1514
     13 C          64.0732   83.9936    9.5484 C.3     1  UNL1        0.1413
     14 C          62.5370   82.0571   12.5410 C.ar    1  UNL1        0.0875
     15 N          62.9186   83.3431   11.8698 N.ar    1  UNL1       -0.2453
     16 C          63.5450   83.0083   10.5486 C.ar    1  UNL1        0.0858
     17 C          63.5505   81.5154   10.4032 C.ar    1  UNL1        0.0530
     18 S          62.9275   80.9275   11.6346 S.2     1  UNL1       -0.0705
     19 C          62.1997   82.9018   14.9747 C.3     1  UNL1        0.0069
     20 C          61.8802   81.9240   13.8830 C.3     1  UNL1        0.0465
     21 C          60.9039   80.8130   14.1332 C.3     1  UNL1        0.0069
     22 C          59.8656   87.3207   10.2389 C.3     1  UNL1        0.1564
     23 N          59.5595   88.0412    8.9593 N.ar    1  UNL1       -0.2472
     24 C          60.1304   89.3609    8.5322 C.ar    1  UNL1        0.0968
     25 C          59.5526   89.7037    7.1911 C.ar    1  UNL1        0.0427
     26 C          58.6245   88.5959    6.7894 C.ar    1  UNL1        0.1217
     27 N          58.6288   87.5684    7.8822 N.ar    1  UNL1       -0.1676
     28 C          63.2533   90.8984   12.8494 C.3     1  UNL1        0.0216
     29 C          64.1448   92.0060   13.3271 C.3     1  UNL1        0.0217
     30 C          65.3970   92.3396   12.5716 C.3     1  UNL1        0.0792
     31 N          65.3805   93.4216   11.5328 N.am    1  UNL1       -0.2720
     32 C          65.9382   94.7769   11.8525 C.2     1  UNL1        0.4019
     33 O          66.5123   95.0502   13.2110 O.2     1  UNL1       -0.2264
     34 H          65.0037   93.2421   10.6411 H       1  UNL1        0.1527
     35 O          65.9216   95.8588   10.8137 O.3     1  UNL1       -0.4291
     36 C          67.0101   95.9265    9.7839 C.3     1  UNL1        0.2447
     37 C          67.6635   94.6662    9.2993 C.ar    1  UNL1        0.0714
     38 C          67.7301   94.1987    7.8756 C.ar    1  UNL1        0.1053
     39 N          68.4728   92.8957    7.8498 N.ar    1  UNL1       -0.2350
     40 C          68.8653   92.5579    9.2576 C.ar    1  UNL1        0.1343
     41 S          68.3651   93.6521   10.1534 S.2     1  UNL1       -0.0652
     42 C          66.6657   91.5913   12.8550 C.3     1  UNL1        0.0460
     43 C          67.5174   91.9761   14.0284 C.ar    1  UNL1       -0.0205
     44 C          68.9582   92.3386   13.8225 C.ar    1  UNL1       -0.0042
     45 C          69.8098   92.7234   14.9958 C.ar    1  UNL1       -0.0003
     46 C          69.2205   92.7457   16.3750 C.ar    1  UNL1       -0.0000
     47 C          67.7796   92.3832   16.5809 C.ar    1  UNL1       -0.0003
     48 C          66.9280   91.9984   15.4076 C.ar    1  UNL1       -0.0042
     49 C          64.4839   89.1143   14.2822 C.3     1  UNL1        0.0459
     50 C          63.9996   88.1005   15.2760 C.ar    1  UNL1       -0.0205
     51 C          63.2094   88.5411   16.4724 C.ar    1  UNL1       -0.0042
     52 C          62.7251   87.5272   17.4662 C.ar    1  UNL1       -0.0003
     53 C          63.0310   86.0728   17.2636 C.ar    1  UNL1       -0.0000
     54 C          63.8212   85.6322   16.0671 C.ar    1  UNL1       -0.0003
     55 C          64.3055   86.6460   15.0733 C.ar    1  UNL1       -0.0042
@<TRIPOS>BOND
     1    19    20    1
     2    20    21    1
     3    20    14    1
     4    14    15   ar
     5    15    16   ar
     6    16    13    1
     7    13     7    1
     8     7     8    1
     9     7     9   am
    10     9    10    2
    11     9    11   am
    12    11     6    1
    13     6    22    1
    14    22    23    1
    15    23    24   ar
    16    24    25   ar
    17    25    26   ar
    18    26    27   ar
    19     6     2    1
    20     2     3    2
    21     2     4   am
    22     4     1    1
    23     1    28    1
    24    28    29    1
    25    30    29    1
    26    30    42    1
    27    42    43    1
    28    43    44   ar
    29    44    45   ar
    30    45    46   ar
    31    46    47   ar
    32    47    48   ar
    33    30    31    1
    34    31    32   am
    35    32    33    2
    36    32    35    1
    37    35    36    1
    38    36    37    1
    39    37    38   ar
    40    38    39   ar
    41    39    40   ar
    42    40    41   ar
    43     1    49    1
    44    49    50    1
    45    50    51   ar
    46    51    52   ar
    47    52    53   ar
    48    53    54   ar
    49    54    55   ar
    50    16    17   ar
    51    17    18   ar
    52    18    14   ar
    53    27    23   ar
    54    48    43   ar
    55    41    37   ar
    56    55    50   ar
    57    11    12    1
    58     4     5    1
    59    31    34    1
@<TRIPOS>MOLECULE
*****
 55 59 0 0 0
SMALL
GASTEIGER

@<TRIPOS>ATOM
      1 C          63.5364   88.2000   13.1446 C.3     1  UNL1        0.0760
      2 C          62.9256   85.7895   12.3919 C.2     1  UNL1        0.2424
      3 O          62.7266   85.3925   13.8246 O.2     1  UNL1       -0.2733
      4 N          63.3305   87.1933   12.0519 N.am    1  UNL1       -0.3042
      5 H          63.4612   87.4539   11.1115 H       1  UNL1        0.1494
      6 C          62.7198   84.7828   11.2992 C.3     1  UNL1        0.1743
      7 N          61.4918   85.1831    7.5466 N.am    1  UNL1       -0.2567
      8 C          61.9818   84.9019    6.1570 C.3     1  UNL1        0.1168
      9 C          62.3508   84.8424    8.7281 C.2     1  UNL1        0.3047
     10 O          63.6999   84.2205    8.5201 O.2     1  UNL1       -0.2526
     11 N          61.8608   85.1235   10.1176 N.am    1  UNL1       -0.2809
     12 H          60.9753   85.5316   10.2541 H       1  UNL1        0.1514
     13 C          60.1427   85.8049    7.7546 C.3     1  UNL1        0.1413
     14 C          59.7730   88.9229   10.0366 C.ar    1  UNL1        0.0875
     15 N          59.8259   87.4357    9.8488 N.ar    1  UNL1       -0.2453
     16 C          60.0311   87.1597    8.3887 C.ar    1  UNL1        0.0858
     17 C          60.1050   88.4765    7.6741 C.ar    1  UNL1        0.0530
     18 S          59.9455   89.5662    8.6925 S.2     1  UNL1       -0.0705
     19 C          59.8265   91.1182   11.4250 C.3     1  UNL1        0.0069
     20 C          59.5813   89.6408   11.3396 C.3     1  UNL1        0.0465
     21 C          59.1445   88.8814   12.5571 C.3     1  UNL1        0.0069
     22 C          63.3730   83.4354   11.3879 C.3     1  UNL1        0.1564
     23 N          62.8114   82.3886   12.3037 N.ar    1  UNL1       -0.2472
     24 C          62.9016   80.9043   12.1065 C.ar    1  UNL1        0.0968
     25 C          62.2069   80.2405   13.2584 C.ar    1  UNL1        0.0427
     26 C          61.6874   81.3146   14.1676 C.ar    1  UNL1        0.1217
     27 N          62.0609   82.6421   13.5775 N.ar    1  UNL1       -0.1676
     28 C          62.8317   89.5229   13.0881 C.3     1  UNL1        0.0216
     29 C          63.4468   90.6690   12.3411 C.3     1  UNL1        0.0217
     30 C          64.5715   91.4479   12.9563 C.3     1  UNL1        0.0792
     31 N          64.9358   92.7969   12.4109 N.am    1  UNL1       -0.2720
     32 C          64.7039   93.1077   10.9618 C.2     1  UNL1        0.4019
     33 O          64.1077   92.0694   10.0582 O.2     1  UNL1       -0.2264
     34 H          65.3271   93.4784   13.0040 H       1  UNL1        0.1527
     35 O          65.0682   94.4567   10.4164 O.3     1  UNL1       -0.4291
     36 C          66.5071   94.8042   10.1743 C.3     1  UNL1        0.2447
     37 C          67.4246   93.8008    9.5406 C.ar    1  UNL1        0.0714
     38 C          67.9859   93.8732    8.1515 C.ar    1  UNL1        0.1053
     39 N          68.8501   92.6660    7.9372 N.ar    1  UNL1       -0.2350
     40 C          68.8229   91.8475    9.1939 C.ar    1  UNL1        0.1343
     41 S          67.9419   92.5489   10.1849 S.2     1  UNL1       -0.0652
     42 C          65.3319   90.8778   14.1167 C.3     1  UNL1        0.0460
     43 C          66.5233   91.6069   14.6637 C.ar    1  UNL1       -0.0205
     44 C          66.3949   92.4180   15.9189 C.ar    1  UNL1       -0.0042
     45 C          67.5863   93.1470   16.4658 C.ar    1  UNL1       -0.0003
     46 C          68.9060   93.0649   15.7576 C.ar    1  UNL1       -0.0000
     47 C          69.0344   92.2537   14.5024 C.ar    1  UNL1       -0.0003
     48 C          67.8430   91.5247   13.9555 C.ar    1  UNL1       -0.0042
     49 C          64.4470   87.8838   14.2940 C.3     1  UNL1        0.0459
     50 C          63.8702   87.4885   15.6210 C.ar    1  UNL1       -0.0205
     51 C          63.3047   88.5350   16.5347 C.ar    1  UNL1       -0.0042
     52 C          62.7279   88.1397   17.8618 C.ar    1  UNL1       -0.0003
     53 C          62.7167   86.6978   18.2751 C.ar    1  UNL1       -0.0000
     54 C          63.2822   85.6512   17.3614 C.ar    1  UNL1       -0.0003
     55 C          63.8590   86.0465   16.0343 C.ar    1  UNL1       -0.0042
@<TRIPOS>BOND
     1    19    20    1
     2    20    21    1
     3    20    14    1
     4    14    15   ar
     5    15    16   ar
     6    16    13    1
     7    13     7    1
     8     7     8    1
     9     7     9   am
    10     9    10    2
    11     9    11   am
    12    11     6    1
    13     6    22    1
    14    22    23    1
    15    23    24   ar
    16    24    25   ar
    17    25    26   ar
    18    26    27   ar
    19     6     2    1
    20     2     3    2
    21     2     4   am
    22     4     1    1
    23     1    28    1
    24    28    29    1
    25    30    29    1
    26    30    42    1
    27    42    43    1
    28    43    44   ar
    29    44    45   ar
    30    45    46   ar
    31    46    47   ar
    32    47    48   ar
    33    30    31    1
    34    31    32   am
    35    32    33    2
    36    32    35    1
    37    35    36    1
    38    36    37    1
    39    37    38   ar
    40    38    39   ar
    41    39    40   ar
    42    40    41   ar
    43     1    49    1
    44    49    50    1
    45    50    51   ar
    46    51    52   ar
    47    52    53   ar
    48    53    54   ar
    49    54    55   ar
    50    16    17   ar
    51    17    18   ar
    52    18    14   ar
    53    27    23   ar
    54    48    43   ar
    55    41    37   ar
    56    55    50   ar
    57    11    12    1
    58     4     5    1
    59    31    34    1
@<TRIPOS>MOLECULE
*****
 55 59 0 0 0
SMALL
GASTEIGER

@<TRIPOS>ATOM
      1 C          63.6058   87.3677   13.1668 C.3     1  UNL1        0.0760
      2 C          63.3866   89.9489   12.9681 C.2     1  UNL1        0.2424
      3 O          62.5567   89.9746   14.2173 O.2     1  UNL1       -0.2733
      4 N          63.9112   88.6454   12.4428 N.am    1  UNL1       -0.3042
      5 H          64.4559   88.6285   11.6229 H       1  UNL1        0.1494
      6 C          63.6920   91.2266   12.2441 C.3     1  UNL1        0.1743
      7 N          66.5574   92.7948   14.4981 N.am    1  UNL1       -0.2567
      8 C          67.5505   92.3599   15.5348 C.3     1  UNL1        0.1168
      9 C          65.6213   91.7933   13.8894 C.2     1  UNL1        0.3047
     10 O          65.6782   90.3567   14.3174 O.2     1  UNL1       -0.2526
     11 N          64.6282   92.2282   12.8528 N.am    1  UNL1       -0.2809
     12 H          64.5909   93.1710   12.5719 H       1  UNL1        0.1514
     13 C          66.5004   94.2314   14.0701 C.3     1  UNL1        0.1413
     14 C          67.1305   94.4683   10.2474 C.ar    1  UNL1        0.0875
     15 N          67.2112   93.7194   11.5446 N.ar    1  UNL1       -0.2453
     16 C          66.6229   94.5867   12.6179 C.ar    1  UNL1        0.0858
     17 C          66.1788   95.8716   11.9840 C.ar    1  UNL1        0.0530
     18 S          66.4924   95.7984   10.5190 S.2     1  UNL1       -0.0705
     19 C          67.2883   94.7511    7.6696 C.3     1  UNL1        0.0069
     20 C          67.6047   93.9740    8.9130 C.3     1  UNL1        0.0465
     21 C          68.3953   92.7025    8.8219 C.3     1  UNL1        0.0069
     22 C          63.0613   91.5027   10.9115 C.3     1  UNL1        0.1564
     23 N          61.8787   90.6978   10.4602 N.ar    1  UNL1       -0.2472
     24 C          61.8825   89.6519    9.3851 C.ar    1  UNL1        0.0968
     25 C          60.4909   89.1052    9.2652 C.ar    1  UNL1        0.0427
     26 C          59.6269   89.8133   10.2663 C.ar    1  UNL1        0.1217
     27 N          60.4847   90.7976   11.0048 N.ar    1  UNL1       -0.1676
     28 C          62.4872   86.4869   12.6945 C.3     1  UNL1        0.0216
     29 C          62.7140   85.0143   12.5220 C.3     1  UNL1        0.0217
     30 C          62.8020   84.4252   11.1453 C.3     1  UNL1        0.0792
     31 N          62.5220   82.9667   10.9343 N.am    1  UNL1       -0.2720
     32 C          63.5885   82.0713   10.3765 C.2     1  UNL1        0.4019
     33 O          64.9348   82.6344   10.0297 O.2     1  UNL1       -0.2264
     34 H          61.6384   82.5971   11.1620 H       1  UNL1        0.1527
     35 O          63.3085   80.6129   10.1655 O.3     1  UNL1       -0.4291
     36 C          62.8227   79.7696   11.3069 C.3     1  UNL1        0.2447
     37 C          62.6204   80.3840   12.6603 C.ar    1  UNL1        0.0714
     38 C          63.6869   80.9976   13.5184 C.ar    1  UNL1        0.1053
     39 N          63.0418   81.4855   14.7816 N.ar    1  UNL1       -0.2350
     40 C          61.5766   81.1733   14.7044 C.ar    1  UNL1        0.1343
     41 S          61.3163   80.4926   13.3933 S.2     1  UNL1       -0.0652
     42 C          63.1701   85.2945    9.9797 C.3     1  UNL1        0.0460
     43 C          62.3448   85.2591    8.7275 C.ar    1  UNL1       -0.0205
     44 C          62.8970   84.6300    7.4829 C.ar    1  UNL1       -0.0042
     45 C          62.0718   84.5946    6.2308 C.ar    1  UNL1       -0.0003
     46 C          60.6943   85.1883    6.2235 C.ar    1  UNL1       -0.0000
     47 C          60.1421   85.8174    7.4681 C.ar    1  UNL1       -0.0003
     48 C          60.9673   85.8528    8.7202 C.ar    1  UNL1       -0.0042
     49 C          64.4190   86.9707   14.3632 C.3     1  UNL1        0.0459
     50 C          63.7813   86.9191   15.7199 C.ar    1  UNL1       -0.0205
     51 C          63.3866   85.5993   16.3134 C.ar    1  UNL1       -0.0042
     52 C          62.7489   85.5478   17.6701 C.ar    1  UNL1       -0.0003
     53 C          62.5060   86.8160   18.4334 C.ar    1  UNL1       -0.0000
     54 C          62.9007   88.1359   17.8398 C.ar    1  UNL1       -0.0003
     55 C          63.5384   88.1874   16.4831 C.ar    1  UNL1       -0.0042
@<TRIPOS>BOND
     1    19    20    1
     2    20    21    1
     3    20    14    1
     4    14    15   ar
     5    15    16   ar
     6    16    13    1
     7    13     7    1
     8     7     8    1
     9     7     9   am
    10     9    10    2
    11     9    11   am
    12    11     6    1
    13     6    22    1
    14    22    23    1
    15    23    24   ar
    16    24    25   ar
    17    25    26   ar
    18    26    27   ar
    19     6     2    1
    20     2     3    2
    21     2     4   am
    22     4     1    1
    23     1    28    1
    24    28    29    1
    25    30    29    1
    26    30    42    1
    27    42    43    1
    28    43    44   ar
    29    44    45   ar
    30    45    46   ar
    31    46    47   ar
    32    47    48   ar
    33    30    31    1
    34    31    32   am
    35    32    33    2
    36    32    35    1
    37    35    36    1
    38    36    37    1
    39    37    38   ar
    40    38    39   ar
    41    39    40   ar
    42    40    41   ar
    43     1    49    1
    44    49    50    1
    45    50    51   ar
    46    51    52   ar
    47    52    53   ar
    48    53    54   ar
    49    54    55   ar
    50    16    17   ar
    51    17    18   ar
    52    18    14   ar
    53    27    23   ar
    54    48    43   ar
    55    41    37   ar
    56    55    50   ar
    57    11    12    1
    58     4     5    1
    59    31    34    1
@<TRIPOS>MOLECULE
*****
 55 59 0 0 0
SMALL
GASTEIGER

@<TRIPOS>ATOM
      1 C          61.1604   87.7805   10.8582 C.3     1  UNL1        0.0760
      2 C          62.2583   90.0414   11.5161 C.2     1  UNL1        0.2424
      3 O          60.9325   90.7276   11.3708 O.2     1  UNL1       -0.2733
      4 N          62.3723   88.5678   11.2598 N.am    1  UNL1       -0.3042
      5 H          63.2426   88.1174   11.3551 H       1  UNL1        0.1494
      6 C          63.4703   90.8287   11.9177 C.3     1  UNL1        0.1743
      7 N          63.6450   90.3806   15.8571 N.am    1  UNL1       -0.2567
      8 C          63.2958   89.3593   16.8987 C.3     1  UNL1        0.1168
      9 C          63.3831   90.0940   14.4082 C.2     1  UNL1        0.3047
     10 O          62.7719   88.7861   14.0010 O.2     1  UNL1       -0.2526
     11 N          63.7323   91.1153   13.3666 N.am    1  UNL1       -0.2809
     12 H          64.1334   91.9737   13.6339 H       1  UNL1        0.1514
     13 C          64.2562   91.6885   16.2643 C.3     1  UNL1        0.1413
     14 C          67.7076   92.1055   14.5381 C.ar    1  UNL1        0.0875
     15 N          66.3524   91.4679   14.6203 N.ar    1  UNL1       -0.2453
     16 C          65.6404   92.0439   15.8084 C.ar    1  UNL1        0.0858
     17 C          66.5555   93.0375   16.4603 C.ar    1  UNL1        0.0530
     18 S          67.8331   93.0756   15.6753 S.2     1  UNL1       -0.0705
     19 C          70.2072   91.8809   13.8662 C.3     1  UNL1        0.0069
     20 C          68.7535   91.8228   13.5008 C.3     1  UNL1        0.0465
     21 C          68.3458   91.4819   12.0981 C.3     1  UNL1        0.0069
     22 C          64.4203   91.3295   10.8705 C.3     1  UNL1        0.1564
     23 N          65.1864   92.5988   11.0981 N.ar    1  UNL1       -0.2472
     24 C          65.9251   93.3822   10.0538 C.ar    1  UNL1        0.0968
     25 C          66.5436   94.5752   10.7203 C.ar    1  UNL1        0.0427
     26 C          66.1872   94.5290   12.1766 C.ar    1  UNL1        0.1217
     27 N          65.3485   93.3076   12.4101 N.ar    1  UNL1       -0.1676
     28 C          59.9964   88.4724   10.2130 C.3     1  UNL1        0.0216
     29 C          60.0865   88.9162    8.7830 C.3     1  UNL1        0.0217
     30 C          59.3085   88.1939    7.7231 C.3     1  UNL1        0.0792
     31 N          58.5825   88.9708    6.6651 N.am    1  UNL1       -0.2720
     32 C          59.2915   90.0586    5.9140 C.2     1  UNL1        0.4019
     33 O          60.7265   90.3694    6.2209 O.2     1  UNL1       -0.2264
     34 H          57.6407   88.7668    6.4637 H       1  UNL1        0.1527
     35 O          58.5655   90.8355    4.8561 O.3     1  UNL1       -0.4291
     36 C          59.0065   92.2273    4.5120 C.3     1  UNL1        0.2447
     37 C          59.9829   92.4501    3.3953 C.ar    1  UNL1        0.0714
     38 C          61.4353   92.0756    3.4061 C.ar    1  UNL1        0.1053
     39 N          62.0283   92.4807    2.0892 N.ar    1  UNL1       -0.2350
     40 C          60.9424   93.1056    1.2645 C.ar    1  UNL1        0.1343
     41 S          59.6782   93.0867    2.0717 S.2     1  UNL1       -0.0652
     42 C          59.2567   86.6948    7.7212 C.3     1  UNL1        0.0460
     43 C          60.4780   85.9025    7.3597 C.ar    1  UNL1       -0.0205
     44 C          60.4365   84.9450    6.2059 C.ar    1  UNL1       -0.0042
     45 C          61.6578   84.1528    5.8444 C.ar    1  UNL1       -0.0003
     46 C          62.9206   84.3181    6.6367 C.ar    1  UNL1       -0.0000
     47 C          62.9622   85.2756    7.7906 C.ar    1  UNL1       -0.0003
     48 C          61.7409   86.0678    8.1521 C.ar    1  UNL1       -0.0042
     49 C          61.1124   86.3011   11.1019 C.3     1  UNL1        0.0459
     50 C          62.2643   85.6139   11.7735 C.ar    1  UNL1       -0.0205
     51 C          62.8530   84.3735   11.1697 C.ar    1  UNL1       -0.0042
     52 C          64.0048   83.6863   11.8414 C.ar    1  UNL1       -0.0003
     53 C          64.5679   84.2396   13.1168 C.ar    1  UNL1       -0.0000
     54 C          63.9791   85.4801   13.7207 C.ar    1  UNL1       -0.0003
     55 C          62.8273   86.1673   13.0490 C.ar    1  UNL1       -0.0042
@<TRIPOS>BOND
     1    19    20    1
     2    20    21    1
     3    20    14    1
     4    14    15   ar
     5    15    16   ar
     6    16    13    1
     7    13     7    1
     8     7     8    1
     9     7     9   am
    10     9    10    2
    11     9    11   am
    12    11     6    1
    13     6    22    1
    14    22    23    1
    15    23    24   ar
    16    24    25   ar
    17    25    26   ar
    18    26    27   ar
    19     6     2    1
    20     2     3    2
    21     2     4   am
    22     4     1    1
    23     1    28    1
    24    28    29    1
    25    30    29    1
    26    30    42    1
    27    42    43    1
    28    43    44   ar
    29    44    45   ar
    30    45    46   ar
    31    46    47   ar
    32    47    48   ar
    33    30    31    1
    34    31    32   am
    35    32    33    2
    36    32    35    1
    37    35    36    1
    38    36    37    1
    39    37    38   ar
    40    38    39   ar
    41    39    40   ar
    42    40    41   ar
    43     1    49    1
    44    49    50    1
    45    50    51   ar
    46    51    52   ar
    47    52    53   ar
    48    53    54   ar
    49    54    55   ar
    50    16    17   ar
    51    17    18   ar
    52    18    14   ar
    53    27    23   ar
    54    48    43   ar
    55    41    37   ar
    56    55    50   ar
    57    11    12    1
    58     4     5    1
    59    31    34    1
@<TRIPOS>MOLECULE
*****
 55 59 0 0 0
SMALL
GASTEIGER

@<TRIPOS>ATOM
      1 C          63.4266   88.3363   13.1962 C.3     1  UNL1        0.0760
      2 C          63.3598   85.8912   12.3203 C.2     1  UNL1        0.2424
      3 O          64.2400   85.4603   13.4558 O.2     1  UNL1       -0.2733
      4 N          62.9531   87.3292   12.1904 N.am    1  UNL1       -0.3042
      5 H          62.3754   87.6120   11.4451 H       1  UNL1        0.1494
      6 C          62.8863   84.8842   11.3145 C.3     1  UNL1        0.1743
      7 N          61.1924   85.3596    7.7571 N.am    1  UNL1       -0.2567
      8 C          61.4627   85.0288    6.3192 C.3     1  UNL1        0.1168
      9 C          62.1745   84.9565    8.8168 C.2     1  UNL1        0.3047
     10 O          63.4268   84.2225    8.4387 O.2     1  UNL1       -0.2526
     11 N          61.9042   85.2873   10.2547 N.am    1  UNL1       -0.2809
     12 H          61.0822   85.7690   10.5029 H       1  UNL1        0.1514
     13 C          59.9401   86.0935    8.1353 C.3     1  UNL1        0.1413
     14 C          59.3652   89.6468    6.6829 C.ar    1  UNL1        0.0875
     15 N          59.3401   88.1537    6.5413 N.ar    1  UNL1       -0.2453
     16 C          59.8091   87.5574    7.8353 C.ar    1  UNL1        0.0858
     17 C          60.1241   88.6820    8.7767 C.ar    1  UNL1        0.0530
     18 S          59.8498   89.9733    8.0645 S.2     1  UNL1       -0.0705
     19 C          57.5249   90.9106    5.3540 C.3     1  UNL1        0.0069
     20 C          58.9744   90.6392    5.6282 C.3     1  UNL1        0.0465
     21 C          60.0332   91.3601    4.8476 C.3     1  UNL1        0.0069
     22 C          63.3948   83.4741   11.3684 C.3     1  UNL1        0.1564
     23 N          62.8248   82.5088   12.3652 N.ar    1  UNL1       -0.2472
     24 C          62.7956   81.0153   12.2291 C.ar    1  UNL1        0.0968
     25 C          62.1367   80.4511   13.4528 C.ar    1  UNL1        0.0427
     26 C          61.7586   81.5959   14.3452 C.ar    1  UNL1        0.1217
     27 N          62.1839   82.8676   13.6730 N.ar    1  UNL1       -0.1676
     28 C          62.9801   89.7647   13.0948 C.3     1  UNL1        0.0216
     29 C          63.7851   90.7472   12.2969 C.3     1  UNL1        0.0217
     30 C          64.8239   91.5911   12.9742 C.3     1  UNL1        0.0792
     31 N          65.1192   92.9703   12.4637 N.am    1  UNL1       -0.2720
     32 C          64.8947   93.2988   11.0174 C.2     1  UNL1        0.4019
     33 O          64.3750   92.2480   10.0816 O.2     1  UNL1       -0.2264
     34 H          65.4603   93.6600   13.0779 H       1  UNL1        0.1527
     35 O          65.1900   94.6780   10.5069 O.3     1  UNL1       -0.4291
     36 C          66.5665   95.0177   10.0173 C.3     1  UNL1        0.2447
     37 C          67.4602   93.9381    9.4828 C.ar    1  UNL1        0.0714
     38 C          68.0023   93.8530    8.0868 C.ar    1  UNL1        0.1053
     39 N          68.8458   92.6163    7.9916 N.ar    1  UNL1       -0.2350
     40 C          68.8251   91.9370    9.3289 C.ar    1  UNL1        0.1343
     41 S          67.9687   92.7540   10.2504 S.2     1  UNL1       -0.0652
     42 C          65.5674   91.0558   14.1619 C.3     1  UNL1        0.0460
     43 C          66.7803   91.7748   14.6739 C.ar    1  UNL1       -0.0205
     44 C          68.0816   91.6704   13.9352 C.ar    1  UNL1       -0.0042
     45 C          69.2944   92.3893   14.4472 C.ar    1  UNL1       -0.0003
     46 C          69.2059   93.2127   15.6979 C.ar    1  UNL1       -0.0000
     47 C          67.9046   93.3171   16.4366 C.ar    1  UNL1       -0.0003
     48 C          66.6918   92.5982   15.9246 C.ar    1  UNL1       -0.0042
     49 C          64.3467   87.9149   14.3035 C.3     1  UNL1        0.0459
     50 C          63.7839   87.5180   15.6361 C.ar    1  UNL1       -0.0205
     51 C          63.6960   86.0684   16.0113 C.ar    1  UNL1       -0.0042
     52 C          63.1332   85.6714   17.3439 C.ar    1  UNL1       -0.0003
     53 C          62.6584   86.7240   18.3012 C.ar    1  UNL1       -0.0000
     54 C          62.7464   88.1737   17.9259 C.ar    1  UNL1       -0.0003
     55 C          63.3091   88.5707   16.5934 C.ar    1  UNL1       -0.0042
@<TRIPOS>BOND
     1    19    20    1
     2    20    21    1
     3    20    14    1
     4    14    15   ar
     5    15    16   ar
     6    16    13    1
     7    13     7    1
     8     7     8    1
     9     7     9   am
    10     9    10    2
    11     9    11   am
    12    11     6    1
    13     6    22    1
    14    22    23    1
    15    23    24   ar
    16    24    25   ar
    17    25    26   ar
    18    26    27   ar
    19     6     2    1
    20     2     3    2
    21     2     4   am
    22     4     1    1
    23     1    28    1
    24    28    29    1
    25    30    29    1
    26    30    42    1
    27    42    43    1
    28    43    44   ar
    29    44    45   ar
    30    45    46   ar
    31    46    47   ar
    32    47    48   ar
    33    30    31    1
    34    31    32   am
    35    32    33    2
    36    32    35    1
    37    35    36    1
    38    36    37    1
    39    37    38   ar
    40    38    39   ar
    41    39    40   ar
    42    40    41   ar
    43     1    49    1
    44    49    50    1
    45    50    51   ar
    46    51    52   ar
    47    52    53   ar
    48    53    54   ar
    49    54    55   ar
    50    16    17   ar
    51    17    18   ar
    52    18    14   ar
    53    27    23   ar
    54    48    43   ar
    55    41    37   ar
    56    55    50   ar
    57    11    12    1
    58     4     5    1
    59    31    34    1
