@<TRIPOS>MOLECULE
*****
 34 37 0 0 0
SMALL
GASTEIGER

@<TRIPOS>ATOM
      1 C          61.0081   86.6019    9.7169 C.3     1  UNL1        0.0840
      2 C          60.7798   85.8344    8.4485 C.3     1  UNL1        0.0095
      3 C          59.9300   86.4202    7.3602 C.3     1  UNL1        0.0005
      4 C          59.3084   87.7734    7.5401 C.3     1  UNL1        0.0005
      5 C          59.5366   88.5409    8.8085 C.3     1  UNL1        0.0082
      6 C          60.3865   87.9552    9.8969 C.3     1  UNL1        0.0705
      7 N          61.8870   84.5316   11.0174 N.am    1  UNL1       -0.2815
      8 C          61.8580   86.0162   10.8054 C.2     1  UNL1        0.2261
      9 O          62.6788   86.9152   11.6818 O.2     1  UNL1       -0.2748
     10 H          61.3482   83.9416   10.4422 H       1  UNL1        0.1549
     11 C          64.5462   83.9331   15.5396 C.3     1  UNL1        0.1538
     12 N          63.9592   83.6708   14.1844 N.ar    1  UNL1       -0.2461
     13 C          63.0981   84.6149   13.3988 C.ar    1  UNL1        0.1112
     14 C          62.7368   83.9458   12.1058 C.ar    1  UNL1        0.0929
     15 C          63.3747   82.5883   12.0923 C.ar    1  UNL1        0.1869
     16 N          64.1301   82.4182   13.3769 N.ar    1  UNL1       -0.1639
     17 C          63.2746   81.5780   10.9880 C.3     1  UNL1        0.4377
     18 F          63.1745   80.5678    9.8837 F       1  UNL1       -0.1643
     19 F          64.0928   82.4678   10.0999 F       1  UNL1       -0.1643
     20 F          62.4564   80.6883   11.8761 F       1  UNL1       -0.1643
     21 C          60.6148   88.7227   11.1653 C.2     1  UNL1        0.1731
     22 O          59.7076   88.5145   12.3415 O.2     1  UNL1       -0.2913
     23 C          61.7503   89.6984   11.2575 C.ar    1  UNL1        0.0347
     24 C          62.2205   90.4202   10.0294 C.ar    1  UNL1        0.0029
     25 C          63.3561   91.3959   10.1215 C.ar    1  UNL1        0.0016
     26 C          64.0214   91.6499   11.4417 C.ar    1  UNL1        0.0171
     27 C          63.5513   90.9281   12.6697 C.ar    1  UNL1        0.0016
     28 C          62.4157   89.9524   12.5776 C.ar    1  UNL1        0.0029
     29 C          65.1570   92.6256   11.5339 C.ar    1  UNL1        0.0754
     30 C          65.7859   93.3575   10.3855 C.ar    1  UNL1        0.0409
     31 C          66.8806   94.2250   10.9324 C.ar    1  UNL1        0.1214
     32 N          66.9283   94.0292   12.4188 N.ar    1  UNL1       -0.1711
     33 N          65.8630   93.0407   12.7905 N.ar    1  UNL1       -0.2757
     34 H          65.6625   92.7206   13.6996 H       1  UNL1        0.1889
@<TRIPOS>BOND
     1    11    12    1
     2    12    13   ar
     3    13    14   ar
     4    14     7    1
     5     7     8   am
     6     8     9    2
     7     1     8    1
     8     1     2    1
     9     2     3    1
    10     3     4    1
    11     4     5    1
    12     5     6    1
    13     6    21    1
    14    21    22    2
    15    21    23    1
    16    23    24   ar
    17    24    25   ar
    18    25    26   ar
    19    26    29    1
    20    29    30   ar
    21    30    31   ar
    22    31    32   ar
    23    32    33   ar
    24    26    27   ar
    25    27    28   ar
    26    14    15   ar
    27    15    17    1
    28    17    18    1
    29    17    19    1
    30    17    20    1
    31    15    16   ar
    32    16    12   ar
    33     6     1    1
    34    28    23   ar
    35    33    29   ar
    36     7    10    1
    37    33    34    1
@<TRIPOS>MOLECULE
*****
 34 37 0 0 0
SMALL
GASTEIGER

@<TRIPOS>ATOM
      1 C          61.0368   86.5851    9.2122 C.3     1  UNL1        0.0840
      2 C          60.5517   86.1073    7.8757 C.3     1  UNL1        0.0095
      3 C          59.6463   86.9748    7.0525 C.3     1  UNL1        0.0005
      4 C          59.2260   88.3201    7.5659 C.3     1  UNL1        0.0005
      5 C          59.7111   88.7979    8.9024 C.3     1  UNL1        0.0082
      6 C          60.6165   87.9304    9.7256 C.3     1  UNL1        0.0705
      7 N          61.6303   85.4672   11.4812 N.am    1  UNL1       -0.2815
      8 C          61.9422   85.7176   10.0355 C.2     1  UNL1        0.2261
      9 O          63.1595   85.1006    9.4131 O.2     1  UNL1       -0.2748
     10 H          60.8314   85.8722   11.8897 H       1  UNL1        0.1549
     11 C          64.0525   81.2361   13.5088 C.3     1  UNL1        0.1538
     12 N          63.6490   82.6549   13.2365 N.ar    1  UNL1       -0.2461
     13 C          62.6150   83.1030   12.2465 C.ar    1  UNL1        0.1112
     14 C          62.5357   84.5998   12.3045 C.ar    1  UNL1        0.0929
     15 C          63.5207   85.0768   13.3302 C.ar    1  UNL1        0.1869
     16 N          64.2088   83.8748   13.9063 N.ar    1  UNL1       -0.1639
     17 C          63.7733   86.5050   13.7128 C.3     1  UNL1        0.4377
     18 F          64.0260   87.9332   14.0954 F       1  UNL1       -0.1643
     19 F          63.9132   86.0955   15.1491 F       1  UNL1       -0.1643
     20 F          63.6335   86.9144   12.2766 F       1  UNL1       -0.1643
     21 C          61.1016   88.4082   11.0622 C.2     1  UNL1        0.1731
     22 O          60.5666   87.7891   12.3194 O.2     1  UNL1       -0.2913
     23 C          62.1216   89.5051   11.1416 C.ar    1  UNL1        0.0347
     24 C          62.7092   89.8884   12.4675 C.ar    1  UNL1        0.0029
     25 C          63.7292   90.9853   12.5468 C.ar    1  UNL1        0.0016
     26 C          64.1617   91.6989   11.3003 C.ar    1  UNL1        0.0171
     27 C          63.5741   91.3156    9.9745 C.ar    1  UNL1        0.0016
     28 C          62.5541   90.2187    9.8951 C.ar    1  UNL1        0.0029
     29 C          65.1818   92.7958   11.3796 C.ar    1  UNL1        0.0754
     30 C          65.8751   93.4409   10.2164 C.ar    1  UNL1        0.0409
     31 C          66.8094   94.4840   10.7540 C.ar    1  UNL1        0.1214
     32 N          66.6935   94.4836   12.2495 N.ar    1  UNL1       -0.1711
     33 N          65.6876   93.4403   12.6361 N.ar    1  UNL1       -0.2757
     34 H          65.4083   93.2175   13.5536 H       1  UNL1        0.1889
@<TRIPOS>BOND
     1    11    12    1
     2    12    13   ar
     3    13    14   ar
     4    14     7    1
     5     7     8   am
     6     8     9    2
     7     1     8    1
     8     1     2    1
     9     2     3    1
    10     3     4    1
    11     4     5    1
    12     5     6    1
    13     6    21    1
    14    21    22    2
    15    21    23    1
    16    23    24   ar
    17    24    25   ar
    18    25    26   ar
    19    26    29    1
    20    29    30   ar
    21    30    31   ar
    22    31    32   ar
    23    32    33   ar
    24    26    27   ar
    25    27    28   ar
    26    14    15   ar
    27    15    17    1
    28    17    18    1
    29    17    19    1
    30    17    20    1
    31    15    16   ar
    32    16    12   ar
    33     6     1    1
    34    28    23   ar
    35    33    29   ar
    36     7    10    1
    37    33    34    1
@<TRIPOS>MOLECULE
*****
 34 37 0 0 0
SMALL
GASTEIGER

@<TRIPOS>ATOM
      1 C          64.0381   90.7538   13.1025 C.3     1  UNL1        0.0840
      2 C          65.2201   91.6773   13.1080 C.3     1  UNL1        0.0095
      3 C          65.5134   92.5271   11.9073 C.3     1  UNL1        0.0005
      4 C          64.6247   92.4534   10.7011 C.3     1  UNL1        0.0005
      5 C          63.4427   91.5299   10.6956 C.3     1  UNL1        0.0082
      6 C          63.1494   90.6801   11.8964 C.3     1  UNL1        0.0705
      7 N          64.0259   88.4309   14.2663 N.am    1  UNL1       -0.2815
      8 C          63.7448   89.9039   14.3033 C.2     1  UNL1        0.2261
      9 O          63.1703   90.5270   15.5409 O.2     1  UNL1       -0.2748
     10 H          64.4029   88.0220   13.4540 H       1  UNL1        0.1549
     11 C          62.5621   86.9112   19.1066 C.3     1  UNL1        0.1538
     12 N          63.0598   86.8825   17.6918 N.ar    1  UNL1       -0.2461
     13 C          63.2019   88.0673   16.7830 C.ar    1  UNL1        0.1112
     14 C          63.7326   87.5810   15.4670 C.ar    1  UNL1        0.0929
     15 C          63.9184   86.0957   15.5625 C.ar    1  UNL1        0.1869
     16 N          63.5026   85.6639   16.9375 N.ar    1  UNL1       -0.1639
     17 C          64.4303   85.1994   14.4741 C.3     1  UNL1        0.4377
     18 F          64.9421   84.3031   13.3856 F       1  UNL1       -0.1643
     19 F          63.0207   84.8465   14.1018 F       1  UNL1       -0.1643
     20 F          65.8398   85.5522   14.8463 F       1  UNL1       -0.1643
     21 C          61.9674   89.7565   11.8909 C.2     1  UNL1        0.1731
     22 O          60.9270   89.8637   12.9661 O.2     1  UNL1       -0.2913
     23 C          61.8259   88.7258   10.8104 C.ar    1  UNL1        0.0347
     24 C          62.5335   87.4088   10.9328 C.ar    1  UNL1        0.0029
     25 C          62.3921   86.3781    9.8522 C.ar    1  UNL1        0.0016
     26 C          61.5430   86.6644    8.6492 C.ar    1  UNL1        0.0171
     27 C          60.8354   87.9814    8.5268 C.ar    1  UNL1        0.0016
     28 C          60.9769   89.0120    9.6074 C.ar    1  UNL1        0.0029
     29 C          61.4015   85.6337    7.5686 C.ar    1  UNL1        0.0754
     30 C          62.5263   84.9349    6.8640 C.ar    1  UNL1        0.0409
     31 C          61.9303   83.9902    5.8628 C.ar    1  UNL1        0.1214
     32 N          60.4372   84.1051    5.9487 N.ar    1  UNL1       -0.1711
     33 N          60.1104   85.1209    7.0029 N.ar    1  UNL1       -0.2757
     34 H          59.2071   85.4017    7.2756 H       1  UNL1        0.1889
@<TRIPOS>BOND
     1    11    12    1
     2    12    13   ar
     3    13    14   ar
     4    14     7    1
     5     7     8   am
     6     8     9    2
     7     1     8    1
     8     1     2    1
     9     2     3    1
    10     3     4    1
    11     4     5    1
    12     5     6    1
    13     6    21    1
    14    21    22    2
    15    21    23    1
    16    23    24   ar
    17    24    25   ar
    18    25    26   ar
    19    26    29    1
    20    29    30   ar
    21    30    31   ar
    22    31    32   ar
    23    32    33   ar
    24    26    27   ar
    25    27    28   ar
    26    14    15   ar
    27    15    17    1
    28    17    18    1
    29    17    19    1
    30    17    20    1
    31    15    16   ar
    32    16    12   ar
    33     6     1    1
    34    28    23   ar
    35    33    29   ar
    36     7    10    1
    37    33    34    1
@<TRIPOS>MOLECULE
*****
 34 37 0 0 0
SMALL
GASTEIGER

@<TRIPOS>ATOM
      1 C          65.4939   91.8236   14.5920 C.3     1  UNL1        0.0840
      2 C          65.7900   92.5864   15.8492 C.3     1  UNL1        0.0095
      3 C          64.9488   92.3716   17.0724 C.3     1  UNL1        0.0005
      4 C          63.8116   91.3941   17.0385 C.3     1  UNL1        0.0005
      5 C          63.5155   90.6313   15.7814 C.3     1  UNL1        0.0082
      6 C          64.3566   90.8461   14.5581 C.3     1  UNL1        0.0705
      7 N          65.8088   92.8637   12.2321 N.am    1  UNL1       -0.2815
      8 C          66.3350   92.0383   13.3687 C.2     1  UNL1        0.2261
      9 O          67.7023   91.4276   13.2820 O.2     1  UNL1       -0.2748
     10 H          64.9114   93.2645   12.2891 H       1  UNL1        0.1549
     11 C          69.2075   92.0645    8.2710 C.3     1  UNL1        0.1538
     12 N          68.2121   92.7111    9.1881 N.ar    1  UNL1       -0.2461
     13 C          67.5777   92.0756   10.3897 C.ar    1  UNL1        0.1112
     14 C          66.6499   93.0784   11.0089 C.ar    1  UNL1        0.0929
     15 C          66.7107   94.3337   10.1899 C.ar    1  UNL1        0.1869
     16 N          67.6762   94.1067    9.0646 N.ar    1  UNL1       -0.1639
     17 C          65.9412   95.5946   10.4505 C.3     1  UNL1        0.4377
     18 F          65.1717   96.8555   10.7111 F       1  UNL1       -0.1643
     19 F          64.6602   94.8753   10.1481 F       1  UNL1       -0.1643
     20 F          67.2223   96.3139   10.7529 F       1  UNL1       -0.1643
     21 C          64.0605   90.0832   13.3009 C.2     1  UNL1        0.1731
     22 O          63.9336   90.8101   11.9950 O.2     1  UNL1       -0.2913
     23 C          63.8914   88.5936   13.3497 C.ar    1  UNL1        0.0347
     24 C          63.1523   87.8863   12.2526 C.ar    1  UNL1        0.0029
     25 C          62.9831   86.3967   12.3015 C.ar    1  UNL1        0.0016
     26 C          63.5532   85.6143   13.4474 C.ar    1  UNL1        0.0171
     27 C          64.2922   86.3216   14.5444 C.ar    1  UNL1        0.0016
     28 C          64.4614   87.8112   14.4956 C.ar    1  UNL1        0.0029
     29 C          63.3840   84.1247   13.4962 C.ar    1  UNL1        0.0754
     30 C          62.8066   83.2668   12.4097 C.ar    1  UNL1        0.0409
     31 C          62.8283   81.8433   12.8821 C.ar    1  UNL1        0.1214
     32 N          63.4192   81.8214   14.2606 N.ar    1  UNL1       -0.1711
     33 N          63.7626   83.2314   14.6402 N.ar    1  UNL1       -0.2757
     34 H          64.1657   83.5198   15.4908 H       1  UNL1        0.1889
@<TRIPOS>BOND
     1    11    12    1
     2    12    13   ar
     3    13    14   ar
     4    14     7    1
     5     7     8   am
     6     8     9    2
     7     1     8    1
     8     1     2    1
     9     2     3    1
    10     3     4    1
    11     4     5    1
    12     5     6    1
    13     6    21    1
    14    21    22    2
    15    21    23    1
    16    23    24   ar
    17    24    25   ar
    18    25    26   ar
    19    26    29    1
    20    29    30   ar
    21    30    31   ar
    22    31    32   ar
    23    32    33   ar
    24    26    27   ar
    25    27    28   ar
    26    14    15   ar
    27    15    17    1
    28    17    18    1
    29    17    19    1
    30    17    20    1
    31    15    16   ar
    32    16    12   ar
    33     6     1    1
    34    28    23   ar
    35    33    29   ar
    36     7    10    1
    37    33    34    1
@<TRIPOS>MOLECULE
*****
 34 37 0 0 0
SMALL
GASTEIGER

@<TRIPOS>ATOM
      1 C          62.7099   85.4017   10.9794 C.3     1  UNL1        0.0840
      2 C          63.2496   84.2332   10.2092 C.3     1  UNL1        0.0095
      3 C          63.3250   84.2920    8.7123 C.3     1  UNL1        0.0005
      4 C          62.8606   85.5192    7.9856 C.3     1  UNL1        0.0005
      5 C          62.3209   86.6877    8.7557 C.3     1  UNL1        0.0082
      6 C          62.2455   86.6290   10.2526 C.3     1  UNL1        0.0705
      7 N          63.5957   86.1401   13.3076 N.am    1  UNL1       -0.2815
      8 C          62.6345   85.3430   12.4764 C.2     1  UNL1        0.2261
      9 O          61.5980   84.4872   13.1422 O.2     1  UNL1       -0.2748
     10 H          64.2760   86.7018   12.8706 H       1  UNL1        0.1549
     11 C          63.0037   87.5390   18.3645 C.3     1  UNL1        0.1538
     12 N          63.2482   86.7244   17.1289 N.ar    1  UNL1       -0.2461
     13 C          63.2234   87.2334   15.7181 C.ar    1  UNL1        0.1112
     14 C          63.5203   86.0814   14.8045 C.ar    1  UNL1        0.0929
     15 C          63.7287   84.8605   15.6506 C.ar    1  UNL1        0.1869
     16 N          63.5605   85.2578   17.0872 N.ar    1  UNL1       -0.1639
     17 C          64.0489   83.4838   15.1483 C.3     1  UNL1        0.4377
     18 F          64.3692   82.1072   14.6461 F       1  UNL1       -0.1643
     19 F          65.3680   83.9786   14.6334 F       1  UNL1       -0.1643
     20 F          62.7298   82.9891   15.6632 F       1  UNL1       -0.1643
     21 C          61.7058   87.7975   11.0229 C.2     1  UNL1        0.1731
     22 O          60.3133   87.7508   11.5787 O.2     1  UNL1       -0.2913
     23 C          62.5585   89.0128   11.2373 C.ar    1  UNL1        0.0347
     24 C          62.7028   90.0301   10.1445 C.ar    1  UNL1        0.0029
     25 C          63.5555   91.2454   10.3589 C.ar    1  UNL1        0.0016
     26 C          64.2639   91.4433   11.6662 C.ar    1  UNL1        0.0171
     27 C          64.1196   90.4260   12.7590 C.ar    1  UNL1        0.0016
     28 C          63.2669   89.2108   12.5446 C.ar    1  UNL1        0.0029
     29 C          65.1167   92.6586   11.8807 C.ar    1  UNL1        0.0754
     30 C          65.4181   93.7155   10.8599 C.ar    1  UNL1        0.0409
     31 C          66.3054   94.7405   11.5019 C.ar    1  UNL1        0.1214
     32 N          66.5524   94.3170   12.9195 N.ar    1  UNL1       -0.1711
     33 N          65.8177   93.0304   13.1536 N.ar    1  UNL1       -0.2757
     34 H          65.7989   92.5196   13.9950 H       1  UNL1        0.1889
@<TRIPOS>BOND
     1    11    12    1
     2    12    13   ar
     3    13    14   ar
     4    14     7    1
     5     7     8   am
     6     8     9    2
     7     1     8    1
     8     1     2    1
     9     2     3    1
    10     3     4    1
    11     4     5    1
    12     5     6    1
    13     6    21    1
    14    21    22    2
    15    21    23    1
    16    23    24   ar
    17    24    25   ar
    18    25    26   ar
    19    26    29    1
    20    29    30   ar
    21    30    31   ar
    22    31    32   ar
    23    32    33   ar
    24    26    27   ar
    25    27    28   ar
    26    14    15   ar
    27    15    17    1
    28    17    18    1
    29    17    19    1
    30    17    20    1
    31    15    16   ar
    32    16    12   ar
    33     6     1    1
    34    28    23   ar
    35    33    29   ar
    36     7    10    1
    37    33    34    1
@<TRIPOS>MOLECULE
*****
 34 37 0 0 0
SMALL
GASTEIGER

@<TRIPOS>ATOM
      1 C          62.7108   90.1741   11.6431 C.3     1  UNL1        0.0840
      2 C          61.9003   90.9136   10.6203 C.3     1  UNL1        0.0095
      3 C          60.9989   90.1586    9.6889 C.3     1  UNL1        0.0005
      4 C          60.9081   88.6641    9.7803 C.3     1  UNL1        0.0005
      5 C          61.7187   87.9246   10.8031 C.3     1  UNL1        0.0082
      6 C          62.6200   88.6796   11.7345 C.3     1  UNL1        0.0705
      7 N          64.9566   91.3974   12.1018 N.am    1  UNL1       -0.2815
      8 C          63.6123   90.9290   12.5746 C.2     1  UNL1        0.2261
      9 O          63.1694   91.2156   13.9787 O.2     1  UNL1       -0.2748
     10 H          65.2472   91.2093   11.1802 H       1  UNL1        0.1549
     11 C          67.8623   92.7149   16.3090 C.3     1  UNL1        0.1538
     12 N          67.1936   92.7579   14.9670 N.ar    1  UNL1       -0.2461
     13 C          66.3045   91.6962   14.3906 C.ar    1  UNL1        0.1112
     14 C          65.8580   92.1523   13.0332 C.ar    1  UNL1        0.0929
     15 C          66.4711   93.4959   12.7707 C.ar    1  UNL1        0.1869
     16 N          67.2966   93.8702   13.9658 N.ar    1  UNL1       -0.1639
     17 C          66.2905   94.3204   11.5307 C.3     1  UNL1        0.4377
     18 F          66.1099   95.1449   10.2907 F       1  UNL1       -0.1643
     19 F          66.5446   93.1067   10.6867 F       1  UNL1       -0.1643
     20 F          66.0365   95.5341   12.3747 F       1  UNL1       -0.1643
     21 C          63.4307   87.9401   12.7573 C.2     1  UNL1        0.1731
     22 O          64.3799   88.6881   13.6457 O.2     1  UNL1       -0.2913
     23 C          63.2920   86.4526   12.8917 C.ar    1  UNL1        0.0347
     24 C          62.6520   85.6567   11.7930 C.ar    1  UNL1        0.0029
     25 C          62.5133   84.1692   11.9273 C.ar    1  UNL1        0.0016
     26 C          63.0146   83.4776   13.1604 C.ar    1  UNL1        0.0171
     27 C          63.6545   84.2734   14.2590 C.ar    1  UNL1        0.0016
     28 C          63.7932   85.7609   14.1247 C.ar    1  UNL1        0.0029
     29 C          62.8759   81.9900   13.2947 C.ar    1  UNL1        0.0754
     30 C          62.7333   81.0123   12.1662 C.ar    1  UNL1        0.0409
     31 C          62.6247   79.6371   12.7552 C.ar    1  UNL1        0.1214
     32 N          62.7001   79.7648   14.2478 N.ar    1  UNL1       -0.1711
     33 N          62.8553   81.2191   14.5813 N.ar    1  UNL1       -0.2757
     34 H          62.9305   81.6005   15.4857 H       1  UNL1        0.1889
@<TRIPOS>BOND
     1    11    12    1
     2    12    13   ar
     3    13    14   ar
     4    14     7    1
     5     7     8   am
     6     8     9    2
     7     1     8    1
     8     1     2    1
     9     2     3    1
    10     3     4    1
    11     4     5    1
    12     5     6    1
    13     6    21    1
    14    21    22    2
    15    21    23    1
    16    23    24   ar
    17    24    25   ar
    18    25    26   ar
    19    26    29    1
    20    29    30   ar
    21    30    31   ar
    22    31    32   ar
    23    32    33   ar
    24    26    27   ar
    25    27    28   ar
    26    14    15   ar
    27    15    17    1
    28    17    18    1
    29    17    19    1
    30    17    20    1
    31    15    16   ar
    32    16    12   ar
    33     6     1    1
    34    28    23   ar
    35    33    29   ar
    36     7    10    1
    37    33    34    1
@<TRIPOS>MOLECULE
*****
 34 37 0 0 0
SMALL
GASTEIGER

@<TRIPOS>ATOM
      1 C          63.4242   88.1487   16.1022 C.3     1  UNL1        0.0840
      2 C          62.8200   88.4025   17.4515 C.3     1  UNL1        0.0095
      3 C          62.5264   87.2534   18.3698 C.3     1  UNL1        0.0005
      4 C          62.8369   85.8506   17.9388 C.3     1  UNL1        0.0005
      5 C          63.4411   85.5969   16.5895 C.3     1  UNL1        0.0082
      6 C          63.7348   86.7460   15.6713 C.3     1  UNL1        0.0705
      7 N          65.1334   89.7483   14.9751 N.am    1  UNL1       -0.2815
      8 C          63.7179   89.2979   15.1838 C.2     1  UNL1        0.2261
      9 O          62.5961   89.9965   14.4743 O.2     1  UNL1       -0.2748
     10 H          65.8696   89.2897   15.4408 H       1  UNL1        0.1549
     11 C          65.0603   92.9948   10.8116 C.3     1  UNL1        0.1538
     12 N          65.3935   92.3896   12.1430 N.ar    1  UNL1       -0.2461
     13 C          64.8141   91.1262   12.7070 C.ar    1  UNL1        0.1112
     14 C          65.4271   90.8973   14.0567 C.ar    1  UNL1        0.0929
     15 C          66.3854   92.0192   14.3269 C.ar    1  UNL1        0.1869
     16 N          66.3647   92.9415   13.1441 N.ar    1  UNL1       -0.1639
     17 C          67.2183   92.1890   15.5628 C.3     1  UNL1        0.4377
     18 F          68.0512   92.3588   16.7987 F       1  UNL1       -0.1643
     19 F          68.4277   91.7145   14.8130 F       1  UNL1       -0.1643
     20 F          66.0089   92.6635   16.3126 F       1  UNL1       -0.1643
     21 C          64.3390   86.4923   14.3219 C.2     1  UNL1        0.1731
     22 O          65.8120   86.2392   14.1953 O.2     1  UNL1       -0.2913
     23 C          63.4701   86.4918   13.0992 C.ar    1  UNL1        0.0347
     24 C          63.1923   87.7763   12.3760 C.ar    1  UNL1        0.0029
     25 C          62.3234   87.7757   11.1532 C.ar    1  UNL1        0.0016
     26 C          61.7323   86.4907   10.6538 C.ar    1  UNL1        0.0171
     27 C          62.0101   85.2063   11.3770 C.ar    1  UNL1        0.0016
     28 C          62.8790   85.2068   12.5997 C.ar    1  UNL1        0.0029
     29 C          60.8634   86.4902    9.4310 C.ar    1  UNL1        0.0754
     30 C          59.6967   87.3983    9.1781 C.ar    1  UNL1        0.0409
     31 C          59.1209   87.0508    7.8373 C.ar    1  UNL1        0.1214
     32 N          59.9318   85.9280    7.2615 N.ar    1  UNL1       -0.1711
     33 N          61.0088   85.5815    8.2465 N.ar    1  UNL1       -0.2757
     34 H          61.6912   84.8807    8.1351 H       1  UNL1        0.1889
@<TRIPOS>BOND
     1    11    12    1
     2    12    13   ar
     3    13    14   ar
     4    14     7    1
     5     7     8   am
     6     8     9    2
     7     1     8    1
     8     1     2    1
     9     2     3    1
    10     3     4    1
    11     4     5    1
    12     5     6    1
    13     6    21    1
    14    21    22    2
    15    21    23    1
    16    23    24   ar
    17    24    25   ar
    18    25    26   ar
    19    26    29    1
    20    29    30   ar
    21    30    31   ar
    22    31    32   ar
    23    32    33   ar
    24    26    27   ar
    25    27    28   ar
    26    14    15   ar
    27    15    17    1
    28    17    18    1
    29    17    19    1
    30    17    20    1
    31    15    16   ar
    32    16    12   ar
    33     6     1    1
    34    28    23   ar
    35    33    29   ar
    36     7    10    1
    37    33    34    1
@<TRIPOS>MOLECULE
*****
 34 37 0 0 0
SMALL
GASTEIGER

@<TRIPOS>ATOM
      1 C          60.4151   88.4002   11.4486 C.3     1  UNL1        0.0840
      2 C          58.9945   88.3181   11.9229 C.3     1  UNL1        0.0095
      3 C          58.1892   89.5711   12.0998 C.3     1  UNL1        0.0005
      4 C          58.8046   90.9064   11.8023 C.3     1  UNL1        0.0005
      5 C          60.2252   90.9885   11.3281 C.3     1  UNL1        0.0082
      6 C          61.0305   89.7355   11.1512 C.3     1  UNL1        0.0705
      7 N          61.9804   86.5741   12.4312 N.am    1  UNL1       -0.2815
      8 C          61.2205   87.1471   11.2718 C.2     1  UNL1        0.2261
      9 O          61.2659   86.4671    9.9356 O.2     1  UNL1       -0.2748
     10 H          61.9506   87.0204   13.3082 H       1  UNL1        0.1549
     11 C          64.0983   82.2216   10.3215 C.3     1  UNL1        0.1538
     12 N          63.7592   83.3205   11.2847 N.ar    1  UNL1       -0.2461
     13 C          62.8291   84.4675   11.0217 C.ar    1  UNL1        0.1112
     14 C          62.7857   85.3211   12.2544 C.ar    1  UNL1        0.0929
     15 C          63.6891   84.7016   13.2792 C.ar    1  UNL1        0.1869
     16 N          64.2908   83.4651   12.6799 N.ar    1  UNL1       -0.1639
     17 C          63.9458   85.2264   14.6607 C.3     1  UNL1        0.4377
     18 F          64.2024   85.7513   16.0422 F       1  UNL1       -0.1643
     19 F          63.3021   84.0039   15.2447 F       1  UNL1       -0.1643
     20 F          64.5894   86.4490   14.0767 F       1  UNL1       -0.1643
     21 C          62.4512   89.8176   10.6769 C.2     1  UNL1        0.1731
     22 O          62.8217   89.2885    9.3232 O.2     1  UNL1       -0.2913
     23 C          63.5014   90.4288   11.5565 C.ar    1  UNL1        0.0347
     24 C          64.2893   91.6104   11.0736 C.ar    1  UNL1        0.0029
     25 C          65.3395   92.2216   11.9531 C.ar    1  UNL1        0.0016
     26 C          65.6016   91.6513   13.3155 C.ar    1  UNL1        0.0171
     27 C          64.8137   90.4698   13.7983 C.ar    1  UNL1        0.0016
     28 C          63.7635   89.8586   12.9188 C.ar    1  UNL1        0.0029
     29 C          66.6518   92.2625   14.1951 C.ar    1  UNL1        0.0754
     30 C          66.4636   92.7050   15.6159 C.ar    1  UNL1        0.0409
     31 C          67.7700   93.2546   16.1072 C.ar    1  UNL1        0.1214
     32 N          68.7656   93.1517   14.9900 N.ar    1  UNL1       -0.1711
     33 N          68.0745   92.5386   13.8082 N.ar    1  UNL1       -0.2757
     34 H          68.4830   92.3505   12.9325 H       1  UNL1        0.1889
@<TRIPOS>BOND
     1    11    12    1
     2    12    13   ar
     3    13    14   ar
     4    14     7    1
     5     7     8   am
     6     8     9    2
     7     1     8    1
     8     1     2    1
     9     2     3    1
    10     3     4    1
    11     4     5    1
    12     5     6    1
    13     6    21    1
    14    21    22    2
    15    21    23    1
    16    23    24   ar
    17    24    25   ar
    18    25    26   ar
    19    26    29    1
    20    29    30   ar
    21    30    31   ar
    22    31    32   ar
    23    32    33   ar
    24    26    27   ar
    25    27    28   ar
    26    14    15   ar
    27    15    17    1
    28    17    18    1
    29    17    19    1
    30    17    20    1
    31    15    16   ar
    32    16    12   ar
    33     6     1    1
    34    28    23   ar
    35    33    29   ar
    36     7    10    1
    37    33    34    1
@<TRIPOS>MOLECULE
*****
 34 37 0 0 0
SMALL
GASTEIGER

@<TRIPOS>ATOM
      1 C          63.2989   87.0260   13.0326 C.3     1  UNL1        0.0840
      2 C          63.9521   85.8211   13.6420 C.3     1  UNL1        0.0095
      3 C          64.8593   85.9783   14.8262 C.3     1  UNL1        0.0005
      4 C          65.1133   87.3404   15.4009 C.3     1  UNL1        0.0005
      5 C          64.4601   88.5453   14.7914 C.3     1  UNL1        0.0082
      6 C          63.5528   88.3881   13.6073 C.3     1  UNL1        0.0705
      7 N          62.5563   87.7610   10.6539 N.am    1  UNL1       -0.2815
      8 C          62.3916   86.8689   11.8484 C.2     1  UNL1        0.2261
      9 O          61.3197   85.8197   11.8589 O.2     1  UNL1       -0.2748
     10 H          63.2598   88.4497   10.6470 H       1  UNL1        0.1549
     11 C          58.8280   88.6741    7.0281 C.3     1  UNL1        0.1538
     12 N          59.9353   88.0236    7.8031 N.ar    1  UNL1       -0.2461
     13 C          60.6019   88.5817    9.0255 C.ar    1  UNL1        0.1112
     14 C          61.6491   87.6040    9.4697 C.ar    1  UNL1        0.0929
     15 C          61.6297   86.4416    8.5218 C.ar    1  UNL1        0.1869
     16 N          60.5706   86.7009    7.4918 N.ar    1  UNL1       -0.1639
     17 C          62.5143   85.2321    8.5917 C.3     1  UNL1        0.4377
     18 F          63.3988   84.0227    8.6616 F       1  UNL1       -0.1643
     19 F          61.4699   84.5147    9.3946 F       1  UNL1       -0.1643
     20 F          63.5586   85.9495    7.7888 F       1  UNL1       -0.1643
     21 C          62.8995   89.5930   12.9978 C.2     1  UNL1        0.1731
     22 O          61.4038   89.7016   12.9698 O.2     1  UNL1       -0.2913
     23 C          63.7421   90.6894   12.4164 C.ar    1  UNL1        0.0347
     24 C          64.7388   91.4066   13.2781 C.ar    1  UNL1        0.0029
     25 C          65.5813   92.5029   12.6967 C.ar    1  UNL1        0.0016
     26 C          65.4272   92.8822   11.2536 C.ar    1  UNL1        0.0171
     27 C          64.4306   92.1651   10.3920 C.ar    1  UNL1        0.0016
     28 C          63.5880   91.0687   10.9734 C.ar    1  UNL1        0.0029
     29 C          66.2698   93.9786   10.6722 C.ar    1  UNL1        0.0754
     30 C          65.9506   95.4440   10.6982 C.ar    1  UNL1        0.0409
     31 C          67.0630   96.1731   10.0047 C.ar    1  UNL1        0.1214
     32 N          68.0697   95.1583    9.5501 N.ar    1  UNL1       -0.1711
     33 N          67.5795   93.8021    9.9626 N.ar    1  UNL1       -0.2757
     34 H          68.0370   92.9463    9.7968 H       1  UNL1        0.1889
@<TRIPOS>BOND
     1    11    12    1
     2    12    13   ar
     3    13    14   ar
     4    14     7    1
     5     7     8   am
     6     8     9    2
     7     1     8    1
     8     1     2    1
     9     2     3    1
    10     3     4    1
    11     4     5    1
    12     5     6    1
    13     6    21    1
    14    21    22    2
    15    21    23    1
    16    23    24   ar
    17    24    25   ar
    18    25    26   ar
    19    26    29    1
    20    29    30   ar
    21    30    31   ar
    22    31    32   ar
    23    32    33   ar
    24    26    27   ar
    25    27    28   ar
    26    14    15   ar
    27    15    17    1
    28    17    18    1
    29    17    19    1
    30    17    20    1
    31    15    16   ar
    32    16    12   ar
    33     6     1    1
    34    28    23   ar
    35    33    29   ar
    36     7    10    1
    37    33    34    1
