@<TRIPOS>MOLECULE
*****
 29 33 0 0 0
SMALL
GASTEIGER

@<TRIPOS>ATOM
      1 C          62.9175   85.7601   11.8948 C.2     1  UNL1       -0.0007
      2 C          62.2280   86.4551   10.7583 C.2     1  UNL1        0.0192
      3 C          62.1242   87.9514   10.7465 C.2     1  UNL1        0.1207
      4 N          61.5077   88.9070    9.7684 N.2     1  UNL1       -0.0381
      5 N          61.7123   90.2989   10.2886 N.2     1  UNL1        0.0756
      6 C          62.4552   90.2036   11.5882 C.2     1  UNL1        0.3334
      7 C          62.7098   88.7527   11.8712 C.3     1  UNL1        0.1733
      8 C          63.3992   88.0577   13.0077 C.2     1  UNL1       -0.0125
      9 C          63.5031   86.5613   13.0195 C.2     1  UNL1       -0.0257
     10 C          61.8904   81.1956   14.1557 C.3     1  UNL1        0.0545
     11 C          62.5078   81.9814   13.0371 C.ar    1  UNL1        0.0867
     12 N          63.2290   81.2709   11.9303 N.ar    1  UNL1       -0.2459
     13 C          63.8463   82.0568   10.8116 C.ar    1  UNL1        0.0986
     14 C          63.7425   83.5531   10.7998 C.ar    1  UNL1        0.0229
     15 C          63.0213   84.2636   11.9066 C.ar    1  UNL1        0.0299
     16 C          62.4040   83.4778   13.0253 C.ar    1  UNL1        0.1535
     17 F          61.6828   84.1883   14.1321 F       1  UNL1       -0.2029
     18 C          64.1925   85.8663   14.1560 C.3     1  UNL1        0.0221
     19 C          65.3241   85.0270   14.6709 C.3     1  UNL1        0.0047
     20 C          64.2550   85.5020   15.6098 C.3     1  UNL1        0.0047
     21 N          62.8706   91.3567   12.4530 N.pl3   1  UNL1       -0.2234
     22 H          62.1952   91.9916   12.7846 H       1  UNL1        0.2919
     23 C          64.3150   91.5424   12.8125 C.3     1  UNL1        0.1592
     24 C          65.2488   92.2085   11.8460 C.3     1  UNL1        0.0637
     25 C          66.6932   92.3943   12.2054 C.3     1  UNL1        0.0763
     26 N          67.2037   91.9138   13.5316 N.3     1  UNL1       -0.2712
     27 C          68.6481   92.0995   13.8911 C.3     1  UNL1        0.0896
     28 C          66.2699   91.2477   14.4981 C.3     1  UNL1        0.0763
     29 C          64.8256   91.0620   14.1386 C.3     1  UNL1        0.0637
@<TRIPOS>BOND
     1    10    11    1
     2    11    12   ar
     3    12    13   ar
     4    13    14   ar
     5    14    15   ar
     6    15     1    1
     7     1     2    2
     8     2     3    1
     9     3     4    2
    10     4     5    1
    11     5     6    2
    12     6    21    1
    13    21    23    1
    14    23    24    1
    15    24    25    1
    16    25    26    1
    17    26    27    1
    18    26    28    1
    19    28    29    1
    20     6     7    1
    21     7     8    1
    22     8     9    2
    23     9    18    1
    24    18    19    1
    25    19    20    1
    26    15    16   ar
    27    16    17    1
    28    16    11   ar
    29     9     1    1
    30    20    18    1
    31     7     3    1
    32    29    23    1
    33    21    22    1
@<TRIPOS>MOLECULE
*****
 29 33 0 0 0
SMALL
GASTEIGER

@<TRIPOS>ATOM
      1 C          62.0247   88.0251   10.1720 C.2     1  UNL1       -0.0007
      2 C          62.1932   89.5014    9.9660 C.2     1  UNL1        0.0192
      3 C          62.9248   90.3222   10.9863 C.2     1  UNL1        0.1207
      4 N          63.2450   91.7860   11.0546 N.2     1  UNL1       -0.0381
      5 N          64.0059   92.0354   12.3230 N.2     1  UNL1        0.0756
      6 C          64.1559   90.7257   13.0387 C.2     1  UNL1        0.3334
      7 C          63.4877   89.6669   12.2126 C.3     1  UNL1        0.1733
      8 C          63.3191   88.1907   12.4185 C.2     1  UNL1       -0.0125
      9 C          62.5876   87.3698   11.3982 C.2     1  UNL1       -0.0257
     10 C          62.0710   84.4645    6.3877 C.3     1  UNL1        0.0545
     11 C          61.3163   85.4239    7.2595 C.ar    1  UNL1        0.0867
     12 N          59.8302   85.5624    7.1110 N.ar    1  UNL1       -0.2459
     13 C          59.0755   86.5218    7.9828 C.ar    1  UNL1        0.0986
     14 C          59.8070   87.3427    9.0031 C.ar    1  UNL1        0.0229
     15 C          61.2931   87.2042    9.1516 C.ar    1  UNL1        0.0299
     16 C          62.0478   86.2448    8.2798 C.ar    1  UNL1        0.1535
     17 F          63.5340   86.1063    8.4283 F       1  UNL1       -0.2029
     18 C          62.4191   85.8936   11.6041 C.3     1  UNL1        0.0221
     19 C          62.1092   84.5324   11.0554 C.3     1  UNL1        0.0047
     20 C          62.4371   84.6979   12.5097 C.3     1  UNL1        0.0047
     21 N          64.8519   90.5123   14.3502 N.pl3   1  UNL1       -0.2234
     22 H          64.5551   89.7933   14.9537 H       1  UNL1        0.2919
     23 C          66.0001   91.3944   14.7422 C.3     1  UNL1        0.1592
     24 C          65.8903   92.2752   15.9512 C.3     1  UNL1        0.0637
     25 C          67.0384   93.1573   16.3433 C.3     1  UNL1        0.0763
     26 N          68.2964   93.1584   15.5262 N.3     1  UNL1       -0.2712
     27 C          69.4446   94.0405   15.9182 C.3     1  UNL1        0.0896
     28 C          68.4061   92.2775   14.3171 C.3     1  UNL1        0.0763
     29 C          67.2580   91.3955   13.9251 C.3     1  UNL1        0.0637
@<TRIPOS>BOND
     1    10    11    1
     2    11    12   ar
     3    12    13   ar
     4    13    14   ar
     5    14    15   ar
     6    15     1    1
     7     1     2    2
     8     2     3    1
     9     3     4    2
    10     4     5    1
    11     5     6    2
    12     6    21    1
    13    21    23    1
    14    23    24    1
    15    24    25    1
    16    25    26    1
    17    26    27    1
    18    26    28    1
    19    28    29    1
    20     6     7    1
    21     7     8    1
    22     8     9    2
    23     9    18    1
    24    18    19    1
    25    19    20    1
    26    15    16   ar
    27    16    17    1
    28    16    11   ar
    29     9     1    1
    30    20    18    1
    31     7     3    1
    32    29    23    1
    33    21    22    1
@<TRIPOS>MOLECULE
*****
 29 33 0 0 0
SMALL
GASTEIGER

@<TRIPOS>ATOM
      1 C          63.3025   85.4916   12.4716 C.2     1  UNL1       -0.0007
      2 C          63.8937   85.9138   13.7840 C.2     1  UNL1        0.0192
      3 C          63.9858   87.3702   14.1311 C.2     1  UNL1        0.1207
      4 N          64.5152   88.0821   15.3406 N.2     1  UNL1       -0.0381
      5 N          64.3432   89.5562   15.1229 N.2     1  UNL1        0.0756
      6 C          63.7076   89.7553   13.7789 C.2     1  UNL1        0.3334
      7 C          63.4867   88.4042   13.1659 C.3     1  UNL1        0.1733
      8 C          62.8956   87.9820   11.8536 C.2     1  UNL1       -0.0125
      9 C          62.8035   86.5256   11.5064 C.2     1  UNL1       -0.0257
     10 C          61.6951   80.6851   13.6180 C.3     1  UNL1        0.0545
     11 C          62.4068   81.6319   12.6976 C.ar    1  UNL1        0.0867
     12 N          63.0263   81.1224   11.4301 N.ar    1  UNL1       -0.2459
     13 C          63.7379   82.0693   10.5098 C.ar    1  UNL1        0.0986
     14 C          63.8300   83.5256   10.8569 C.ar    1  UNL1        0.0229
     15 C          63.2105   84.0351   12.1244 C.ar    1  UNL1        0.0299
     16 C          62.4988   83.0883   13.0447 C.ar    1  UNL1        0.1535
     17 F          61.8793   83.5978   14.3122 F       1  UNL1       -0.2029
     18 C          62.2123   86.1034   10.1940 C.3     1  UNL1        0.0221
     19 C          61.0112   85.8344    9.3368 C.3     1  UNL1        0.0047
     20 C          62.3897   85.6410    8.7781 C.3     1  UNL1        0.0047
     21 N          63.3549   91.0740   13.1571 N.pl3   1  UNL1       -0.2234
     22 H          62.4424   91.4324   13.2473 H       1  UNL1        0.2919
     23 C          64.3924   91.8466   12.3977 C.3     1  UNL1        0.1592
     24 C          65.5168   92.5145   13.1322 C.3     1  UNL1        0.0637
     25 C          66.5544   93.2872   12.3729 C.3     1  UNL1        0.0763
     26 N          66.4674   93.3918   10.8790 N.3     1  UNL1       -0.2712
     27 C          67.5050   94.1644   10.1197 C.3     1  UNL1        0.0896
     28 C          65.3430   92.7239   10.1446 C.3     1  UNL1        0.0763
     29 C          64.3055   91.9513   10.9039 C.3     1  UNL1        0.0637
@<TRIPOS>BOND
     1    10    11    1
     2    11    12   ar
     3    12    13   ar
     4    13    14   ar
     5    14    15   ar
     6    15     1    1
     7     1     2    2
     8     2     3    1
     9     3     4    2
    10     4     5    1
    11     5     6    2
    12     6    21    1
    13    21    23    1
    14    23    24    1
    15    24    25    1
    16    25    26    1
    17    26    27    1
    18    26    28    1
    19    28    29    1
    20     6     7    1
    21     7     8    1
    22     8     9    2
    23     9    18    1
    24    18    19    1
    25    19    20    1
    26    15    16   ar
    27    16    17    1
    28    16    11   ar
    29     9     1    1
    30    20    18    1
    31     7     3    1
    32    29    23    1
    33    21    22    1
@<TRIPOS>MOLECULE
*****
 29 33 0 0 0
SMALL
GASTEIGER

@<TRIPOS>ATOM
      1 C          62.8373   86.0498   12.2183 C.2     1  UNL1       -0.0007
      2 C          62.1536   86.6873   11.0452 C.2     1  UNL1        0.0192
      3 C          62.1599   88.1796   10.8935 C.2     1  UNL1        0.1207
      4 N          61.5748   89.0849    9.8504 N.2     1  UNL1       -0.0381
      5 N          61.9032   90.4992   10.2272 N.2     1  UNL1        0.0756
      6 C          62.6913   90.4680   11.5031 C.2     1  UNL1        0.3334
      7 C          62.8500   89.0344   11.9149 C.3     1  UNL1        0.1733
      8 C          63.5337   88.3968   13.0880 C.2     1  UNL1       -0.0125
      9 C          63.5273   86.9046   13.2396 C.2     1  UNL1       -0.0257
     10 C          63.6905   81.3217   10.2390 C.3     1  UNL1        0.0545
     11 C          63.2576   82.1934   11.3804 C.ar    1  UNL1        0.0867
     12 N          62.8183   81.5729   12.6734 N.ar    1  UNL1       -0.2459
     13 C          62.3853   82.4446   13.8147 C.ar    1  UNL1        0.0986
     14 C          62.3917   83.9369   13.6630 C.ar    1  UNL1        0.0229
     15 C          62.8310   84.5575   12.3700 C.ar    1  UNL1        0.0299
     16 C          63.2639   83.6857   11.2287 C.ar    1  UNL1        0.1535
     17 F          63.7032   84.3063    9.9357 F       1  UNL1       -0.2029
     18 C          64.2111   86.2671   14.4128 C.3     1  UNL1        0.0221
     19 C          65.3890   85.5424   14.9935 C.3     1  UNL1        0.0047
     20 C          64.2172   85.8876   15.8640 C.3     1  UNL1        0.0047
     21 N          63.2267   91.6609   12.2381 N.pl3   1  UNL1       -0.2234
     22 H          62.6154   92.3770   12.5257 H       1  UNL1        0.2919
     23 C          64.6935   91.7628   12.5349 C.3     1  UNL1        0.1592
     24 C          65.2173   91.3496   13.8783 C.3     1  UNL1        0.0637
     25 C          66.6841   91.4515   14.1752 C.3     1  UNL1        0.0763
     26 N          67.6271   91.9666   13.1285 N.3     1  UNL1       -0.2712
     27 C          69.0939   92.0685   13.4253 C.3     1  UNL1        0.0896
     28 C          67.1032   92.3798   11.7850 C.3     1  UNL1        0.0763
     29 C          65.6365   92.2779   11.4883 C.3     1  UNL1        0.0637
@<TRIPOS>BOND
     1    10    11    1
     2    11    12   ar
     3    12    13   ar
     4    13    14   ar
     5    14    15   ar
     6    15     1    1
     7     1     2    2
     8     2     3    1
     9     3     4    2
    10     4     5    1
    11     5     6    2
    12     6    21    1
    13    21    23    1
    14    23    24    1
    15    24    25    1
    16    25    26    1
    17    26    27    1
    18    26    28    1
    19    28    29    1
    20     6     7    1
    21     7     8    1
    22     8     9    2
    23     9    18    1
    24    18    19    1
    25    19    20    1
    26    15    16   ar
    27    16    17    1
    28    16    11   ar
    29     9     1    1
    30    20    18    1
    31     7     3    1
    32    29    23    1
    33    21    22    1
@<TRIPOS>MOLECULE
*****
 29 33 0 0 0
SMALL
GASTEIGER

@<TRIPOS>ATOM
      1 C          62.0021   87.9530    9.9758 C.2     1  UNL1       -0.0007
      2 C          62.1987   89.4206    9.7355 C.2     1  UNL1        0.0192
      3 C          62.9006   90.2609   10.7607 C.2     1  UNL1        0.1207
      4 N          63.2378   91.7220   10.8006 N.2     1  UNL1       -0.0381
      5 N          63.9516   91.9978   12.0907 N.2     1  UNL1        0.0756
      6 C          64.0556   90.7073   12.8481 C.2     1  UNL1        0.3334
      7 C          63.4061   89.6338   12.0261 C.3     1  UNL1        0.1733
      8 C          63.2095   88.1663   12.2663 C.2     1  UNL1       -0.0125
      9 C          62.5075   87.3259   11.2412 C.2     1  UNL1       -0.0257
     10 C          62.1557   84.3162    6.2676 C.3     1  UNL1        0.0545
     11 C          61.3769   85.2942    7.0965 C.ar    1  UNL1        0.0867
     12 N          59.8962   85.4317    6.9003 N.ar    1  UNL1       -0.2459
     13 C          59.1174   86.4097    7.7292 C.ar    1  UNL1        0.0986
     14 C          59.8194   87.2501    8.7544 C.ar    1  UNL1        0.0229
     15 C          61.3001   87.1125    8.9506 C.ar    1  UNL1        0.0299
     16 C          62.0789   86.1346    8.1217 C.ar    1  UNL1        0.1535
     17 F          63.5596   85.9970    8.3179 F       1  UNL1       -0.2029
     18 C          62.3110   85.8583   11.4815 C.3     1  UNL1        0.0221
     19 C          62.1517   84.7071   12.4298 C.3     1  UNL1        0.0047
     20 C          62.1300   84.4676   10.9492 C.3     1  UNL1        0.0047
     21 N          64.6966   90.5226   14.1916 N.pl3   1  UNL1       -0.2234
     22 H          65.4529   91.0936   14.4588 H       1  UNL1        0.2919
     23 C          64.1855   89.4681   15.1280 C.3     1  UNL1        0.1592
     24 C          63.3690   89.8591   16.3239 C.3     1  UNL1        0.0637
     25 C          62.8579   88.8047   17.2603 C.3     1  UNL1        0.0763
     26 N          63.1632   87.3591   17.0006 N.3     1  UNL1       -0.2712
     27 C          62.6521   86.3046   17.9370 C.3     1  UNL1        0.0896
     28 C          63.9797   86.9682   15.8046 C.3     1  UNL1        0.0763
     29 C          64.4908   88.0227   14.8683 C.3     1  UNL1        0.0637
@<TRIPOS>BOND
     1    10    11    1
     2    11    12   ar
     3    12    13   ar
     4    13    14   ar
     5    14    15   ar
     6    15     1    1
     7     1     2    2
     8     2     3    1
     9     3     4    2
    10     4     5    1
    11     5     6    2
    12     6    21    1
    13    21    23    1
    14    23    24    1
    15    24    25    1
    16    25    26    1
    17    26    27    1
    18    26    28    1
    19    28    29    1
    20     6     7    1
    21     7     8    1
    22     8     9    2
    23     9    18    1
    24    18    19    1
    25    19    20    1
    26    15    16   ar
    27    16    17    1
    28    16    11   ar
    29     9     1    1
    30    20    18    1
    31     7     3    1
    32    29    23    1
    33    21    22    1
@<TRIPOS>MOLECULE
*****
 29 33 0 0 0
SMALL
GASTEIGER

@<TRIPOS>ATOM
      1 C          64.1747   90.6821   13.3200 C.2     1  UNL1       -0.0007
      2 C          63.8958   91.4470   12.0601 C.2     1  UNL1        0.0192
      3 C          63.1031   90.8112   10.9568 C.2     1  UNL1        0.1207
      4 N          62.6734   91.3150    9.6108 N.2     1  UNL1       -0.0381
      5 N          61.8940   90.2257    8.9354 N.2     1  UNL1        0.0756
      6 C          61.8420   89.0488    9.8640 C.2     1  UNL1        0.3334
      7 C          62.5892   89.4107   11.1133 C.3     1  UNL1        0.1733
      8 C          62.8681   88.6459   12.3732 C.2     1  UNL1       -0.0125
      9 C          63.6609   89.2816   13.4765 C.2     1  UNL1       -0.0257
     10 C          68.6610   92.5965   15.1113 C.3     1  UNL1        0.0545
     11 C          67.2107   92.2750   15.3190 C.ar    1  UNL1        0.0867
     12 N          66.5531   92.5892   16.6301 N.ar    1  UNL1       -0.2459
     13 C          65.1028   92.2677   16.8378 C.ar    1  UNL1        0.0986
     14 C          64.3100   91.6320   15.7345 C.ar    1  UNL1        0.0229
     15 C          64.9675   91.3178   14.4234 C.ar    1  UNL1        0.0299
     16 C          66.4179   91.6393   14.2157 C.ar    1  UNL1        0.1535
     17 F          67.0755   91.3251   12.9046 F       1  UNL1       -0.2029
     18 C          63.9398   88.5167   14.7364 C.3     1  UNL1        0.0221
     19 C          64.6175   87.3805   15.4433 C.3     1  UNL1        0.0047
     20 C          63.7450   88.3283   16.2117 C.3     1  UNL1        0.0047
     21 N          61.1621   87.7399    9.5912 N.pl3   1  UNL1       -0.2234
     22 H          60.2299   87.7260    9.2749 H       1  UNL1        0.2919
     23 C          61.9024   86.4522    9.8003 C.3     1  UNL1        0.1592
     24 C          62.7028   85.8569    8.6801 C.3     1  UNL1        0.0637
     25 C          63.4432   84.5692    8.8892 C.3     1  UNL1        0.0763
     26 N          63.3831   83.8769   10.2186 N.3     1  UNL1       -0.2712
     27 C          64.1235   82.5892   10.4277 C.3     1  UNL1        0.0896
     28 C          62.5828   84.4723   11.3388 C.3     1  UNL1        0.0763
     29 C          61.8424   85.7599   11.1297 C.3     1  UNL1        0.0637
@<TRIPOS>BOND
     1    10    11    1
     2    11    12   ar
     3    12    13   ar
     4    13    14   ar
     5    14    15   ar
     6    15     1    1
     7     1     2    2
     8     2     3    1
     9     3     4    2
    10     4     5    1
    11     5     6    2
    12     6    21    1
    13    21    23    1
    14    23    24    1
    15    24    25    1
    16    25    26    1
    17    26    27    1
    18    26    28    1
    19    28    29    1
    20     6     7    1
    21     7     8    1
    22     8     9    2
    23     9    18    1
    24    18    19    1
    25    19    20    1
    26    15    16   ar
    27    16    17    1
    28    16    11   ar
    29     9     1    1
    30    20    18    1
    31     7     3    1
    32    29    23    1
    33    21    22    1
@<TRIPOS>MOLECULE
*****
 29 33 0 0 0
SMALL
GASTEIGER

@<TRIPOS>ATOM
      1 C          62.1274   85.1800   10.7522 C.2     1  UNL1       -0.0007
      2 C          62.3028   83.7813   11.2652 C.2     1  UNL1        0.0192
      3 C          62.8689   83.5504   12.6349 C.2     1  UNL1        0.1207
      4 N          63.1554   82.2948   13.4039 N.2     1  UNL1       -0.0381
      5 N          63.7231   82.6865   14.7359 N.2     1  UNL1        0.0756
      6 C          63.7876   84.1841   14.7901 C.2     1  UNL1        0.3334
      7 C          63.2596   84.7181   13.4916 C.3     1  UNL1        0.1733
      8 C          63.0842   86.1166   12.9786 C.2     1  UNL1       -0.0125
      9 C          62.5180   86.3475   11.6088 C.2     1  UNL1       -0.0257
     10 C          62.3698   84.4902    5.6077 C.3     1  UNL1        0.0545
     11 C          61.6824   85.0660    6.8102 C.ar    1  UNL1        0.0867
     12 N          60.4290   85.8727    6.6429 N.ar    1  UNL1       -0.2459
     13 C          59.7416   86.4485    7.8454 C.ar    1  UNL1        0.0986
     14 C          60.3077   86.2176    9.2151 C.ar    1  UNL1        0.0229
     15 C          61.5612   85.4109    9.3824 C.ar    1  UNL1        0.0299
     16 C          62.2486   84.8351    8.1799 C.ar    1  UNL1        0.1535
     17 F          63.5021   84.0284    8.3471 F       1  UNL1       -0.2029
     18 C          62.3426   87.7462   11.0959 C.3     1  UNL1        0.0221
     19 C          62.4215   88.7375    9.9728 C.3     1  UNL1        0.0047
     20 C          61.9598   89.1774   11.3305 C.3     1  UNL1        0.0047
     21 N          64.2914   85.0039   15.9408 N.pl3   1  UNL1       -0.2234
     22 H          64.7689   84.5685   16.6836 H       1  UNL1        0.2919
     23 C          64.0679   86.4870   15.9598 C.3     1  UNL1        0.1592
     24 C          63.2028   87.1015   17.0200 C.3     1  UNL1        0.0637
     25 C          62.9792   88.5846   17.0390 C.3     1  UNL1        0.0763
     26 N          63.6209   89.4532   15.9978 N.3     1  UNL1       -0.2712
     27 C          63.3973   90.9364   16.0169 C.3     1  UNL1        0.0896
     28 C          64.4860   88.8387   14.9377 C.3     1  UNL1        0.0763
     29 C          64.7095   87.3556   14.9187 C.3     1  UNL1        0.0637
@<TRIPOS>BOND
     1    10    11    1
     2    11    12   ar
     3    12    13   ar
     4    13    14   ar
     5    14    15   ar
     6    15     1    1
     7     1     2    2
     8     2     3    1
     9     3     4    2
    10     4     5    1
    11     5     6    2
    12     6    21    1
    13    21    23    1
    14    23    24    1
    15    24    25    1
    16    25    26    1
    17    26    27    1
    18    26    28    1
    19    28    29    1
    20     6     7    1
    21     7     8    1
    22     8     9    2
    23     9    18    1
    24    18    19    1
    25    19    20    1
    26    15    16   ar
    27    16    17    1
    28    16    11   ar
    29     9     1    1
    30    20    18    1
    31     7     3    1
    32    29    23    1
    33    21    22    1
@<TRIPOS>MOLECULE
*****
 29 33 0 0 0
SMALL
GASTEIGER

@<TRIPOS>ATOM
      1 C          64.2180   89.0276   14.4716 C.2     1  UNL1       -0.0007
      2 C          64.3903   87.7268   15.1985 C.2     1  UNL1        0.0192
      3 C          64.0663   86.4343   14.5098 C.2     1  UNL1        0.1207
      4 N          64.1362   85.0077   14.9681 N.2     1  UNL1       -0.0381
      5 N          63.6833   84.1344   13.8359 N.2     1  UNL1        0.0756
      6 C          63.3334   85.0211   12.6777 C.2     1  UNL1        0.3334
      7 C          63.5700   86.4425   13.0942 C.3     1  UNL1        0.1733
      8 C          63.3979   87.7433   12.3675 C.2     1  UNL1       -0.0125
      9 C          63.7219   89.0359   13.0562 C.2     1  UNL1       -0.0257
     10 C          67.2918   93.1791   15.0351 C.3     1  UNL1        0.0545
     11 C          66.0789   92.3960   15.4421 C.ar    1  UNL1        0.0867
     12 N          65.1901   92.9053   16.5378 N.ar    1  UNL1       -0.2459
     13 C          63.9773   92.1221   16.9448 C.ar    1  UNL1        0.0986
     14 C          63.6533   90.8296   16.2561 C.ar    1  UNL1        0.0229
     15 C          64.5421   90.3202   15.1604 C.ar    1  UNL1        0.0299
     16 C          65.7549   91.1034   14.7534 C.ar    1  UNL1        0.1535
     17 F          66.6437   90.5941   13.6577 F       1  UNL1       -0.2029
     18 C          63.5496   90.3367   12.3293 C.3     1  UNL1        0.0221
     19 C          62.7055   91.2614   11.5033 C.3     1  UNL1        0.0047
     20 C          64.0956   91.6651   11.8964 C.3     1  UNL1        0.0047
     21 N          62.8343   84.5662   11.3383 N.pl3   1  UNL1       -0.2234
     22 H          63.0317   83.6547   11.0231 H       1  UNL1        0.2919
     23 C          62.0347   85.5002   10.4791 C.3     1  UNL1        0.1592
     24 C          62.2489   85.5225    8.9947 C.3     1  UNL1        0.0637
     25 C          61.4493   86.4565    8.1354 C.3     1  UNL1        0.0763
     26 N          60.4353   87.3681    8.7608 N.3     1  UNL1       -0.2712
     27 C          59.6357   88.3021    7.9016 C.3     1  UNL1        0.0896
     28 C          60.2212   87.3458   10.2452 C.3     1  UNL1        0.0763
     29 C          61.0208   86.4119   11.1044 C.3     1  UNL1        0.0637
@<TRIPOS>BOND
     1    10    11    1
     2    11    12   ar
     3    12    13   ar
     4    13    14   ar
     5    14    15   ar
     6    15     1    1
     7     1     2    2
     8     2     3    1
     9     3     4    2
    10     4     5    1
    11     5     6    2
    12     6    21    1
    13    21    23    1
    14    23    24    1
    15    24    25    1
    16    25    26    1
    17    26    27    1
    18    26    28    1
    19    28    29    1
    20     6     7    1
    21     7     8    1
    22     8     9    2
    23     9    18    1
    24    18    19    1
    25    19    20    1
    26    15    16   ar
    27    16    17    1
    28    16    11   ar
    29     9     1    1
    30    20    18    1
    31     7     3    1
    32    29    23    1
    33    21    22    1
@<TRIPOS>MOLECULE
*****
 29 33 0 0 0
SMALL
GASTEIGER

@<TRIPOS>ATOM
      1 C          62.0502   86.8818   10.6676 C.2     1  UNL1       -0.0007
      2 C          62.7429   85.8768   11.5396 C.2     1  UNL1        0.0192
      3 C          63.4493   86.3247   12.7847 C.2     1  UNL1        0.1207
      4 N          64.2134   85.5698   13.8318 N.2     1  UNL1       -0.0381
      5 N          64.6993   86.5561   14.8521 N.2     1  UNL1        0.0756
      6 C          64.2356   87.9205   14.4356 C.2     1  UNL1        0.3334
      7 C          63.4631   87.7774   13.1578 C.3     1  UNL1        0.1733
      8 C          62.7704   88.7823   12.2859 C.2     1  UNL1       -0.0125
      9 C          62.0639   88.3344   11.0408 C.2     1  UNL1       -0.0257
     10 C          62.1166   84.4081    6.0984 C.3     1  UNL1        0.0545
     11 C          61.3769   85.1971    7.1379 C.ar    1  UNL1        0.0867
     12 N          59.9308   85.5381    6.9322 N.ar    1  UNL1       -0.2459
     13 C          59.1911   86.3270    7.9717 C.ar    1  UNL1        0.0986
     14 C          59.8975   86.7749    9.2168 C.ar    1  UNL1        0.0229
     15 C          61.3437   86.4339    9.4225 C.ar    1  UNL1        0.0299
     16 C          62.0834   85.6449    8.3830 C.ar    1  UNL1        0.1535
     17 F          63.5295   85.3039    8.5887 F       1  UNL1       -0.2029
     18 C          61.3712   89.3394   10.1688 C.3     1  UNL1        0.0221
     19 C          61.2637   90.0730    8.8649 C.3     1  UNL1        0.0047
     20 C          60.2788   90.3465    9.9626 C.3     1  UNL1        0.0047
     21 N          64.4984   89.2028   15.1682 N.pl3   1  UNL1       -0.2234
     22 H          64.3586   89.2511   16.1416 H       1  UNL1        0.2919
     23 C          64.9741   90.4114   14.4179 C.3     1  UNL1        0.1592
     24 C          66.2348   91.1068   14.8383 C.3     1  UNL1        0.0637
     25 C          66.7107   92.3154   14.0880 C.3     1  UNL1        0.0763
     26 N          65.9256   92.8285   12.9173 N.3     1  UNL1       -0.2712
     27 C          66.4013   94.0371   12.1669 C.3     1  UNL1        0.0896
     28 C          64.6648   92.1330   12.4970 C.3     1  UNL1        0.0763
     29 C          64.1891   90.9244   13.2472 C.3     1  UNL1        0.0637
@<TRIPOS>BOND
     1    10    11    1
     2    11    12   ar
     3    12    13   ar
     4    13    14   ar
     5    14    15   ar
     6    15     1    1
     7     1     2    2
     8     2     3    1
     9     3     4    2
    10     4     5    1
    11     5     6    2
    12     6    21    1
    13    21    23    1
    14    23    24    1
    15    24    25    1
    16    25    26    1
    17    26    27    1
    18    26    28    1
    19    28    29    1
    20     6     7    1
    21     7     8    1
    22     8     9    2
    23     9    18    1
    24    18    19    1
    25    19    20    1
    26    15    16   ar
    27    16    17    1
    28    16    11   ar
    29     9     1    1
    30    20    18    1
    31     7     3    1
    32    29    23    1
    33    21    22    1
