@<TRIPOS>MOLECULE
*****
 30 33 0 0 0
SMALL
GASTEIGER

@<TRIPOS>ATOM
      1 N          63.5675   91.9746   16.5636 N.3     1  UNL1       -0.3195
      2 C          63.7604   90.6727   15.8440 C.3     1  UNL1        0.0910
      3 C          63.2982   89.3266   16.3176 C.3     1  UNL1        0.1108
      4 N          63.7014   88.3103   15.2906 N.pl3   1  UNL1       -0.2749
      5 C          64.4128   89.0283   14.1823 C.3     1  UNL1        0.1148
      6 C          64.4492   90.4884   14.5243 C.3     1  UNL1        0.1110
      7 H          63.0677   91.8093   17.4373 H       1  UNL1        0.1189
      8 H          63.0265   92.6102   15.9774 H       1  UNL1        0.1189
      9 N          65.0662   91.5736   13.6926 N.am    1  UNL1       -0.2728
     10 C          64.6565   91.7452   12.2599 C.3     1  UNL1        0.1600
     11 C          65.2735   92.8304   11.4282 C.3     1  UNL1        0.2823
     12 F          65.5696   93.7037   10.2451 F       1  UNL1       -0.2025
     13 F          64.3495   92.2201   10.4163 F       1  UNL1       -0.2025
     14 C          66.3001   93.7439   12.0293 C.3     1  UNL1        0.0779
     15 C          66.7099   93.5723   13.4620 C.3     1  UNL1        0.0910
     16 C          66.0929   92.4871   14.2936 C.2     1  UNL1        0.2260
     17 O          66.5027   92.3154   15.7264 O.2     1  UNL1       -0.2749
     18 C          63.4393   86.8349   15.3598 C.ar    1  UNL1        0.2241
     19 N          63.0965   86.1949   16.6724 N.ar    1  UNL1       -0.1912
     20 C          62.8344   84.7196   16.7416 C.ar    1  UNL1        0.2037
     21 N          62.9150   83.8844   15.4982 N.ar    1  UNL1       -0.1912
     22 C          63.2577   84.5245   14.1857 C.ar    1  UNL1        0.2241
     23 N          63.5199   85.9997   14.1165 N.ar    1  UNL1       -0.1807
     24 N          63.3383   83.6893   12.9423 N.pl3   1  UNL1       -0.2726
     25 C          63.8018   84.1569   11.5945 C.3     1  UNL1        0.0995
     26 C          63.7195   82.9964   10.6477 C.3     1  UNL1        0.0898
     27 C          63.2052   81.8115   11.4103 C.3     1  UNL1        0.2835
     28 F          63.3391   81.1048   10.0941 F       1  UNL1       -0.2024
     29 F          62.7189   80.4790   11.8977 F       1  UNL1       -0.2024
     30 C          62.9696   82.2397   12.8284 C.3     1  UNL1        0.1602
@<TRIPOS>BOND
     1     2     1    1
     2     2     3    1
     3     3     4    1
     4     4    18    1
     5    18    19   ar
     6    19    20   ar
     7    20    21   ar
     8    21    22   ar
     9    22    24    1
    10    24    25    1
    11    25    26    1
    12    26    27    1
    13    27    28    1
    14    27    29    1
    15    27    30    1
    16    22    23   ar
    17     4     5    1
    18     5     6    1
    19     6     9    1
    20     9    10    1
    21    10    11    1
    22    11    12    1
    23    11    13    1
    24    11    14    1
    25    14    15    1
    26    15    16    1
    27    16    17    2
    28     6     2    1
    29    16     9   am
    30    23    18   ar
    31    30    24    1
    32     1     7    1
    33     1     8    1
@<TRIPOS>MOLECULE
*****
 30 33 0 0 0
SMALL
GASTEIGER

@<TRIPOS>ATOM
      1 N          62.7022   86.4327   12.6444 N.3     1  UNL1       -0.3195
      2 C          63.0148   87.8600   12.3053 C.3     1  UNL1        0.0910
      3 C          63.8830   88.7863   13.1042 C.3     1  UNL1        0.1108
      4 N          63.9189   90.1104   12.4004 N.pl3   1  UNL1       -0.2749
      5 C          63.0728   90.0026   11.1665 C.3     1  UNL1        0.1148
      6 C          62.5141   88.6118   11.1077 C.3     1  UNL1        0.1110
      7 H          63.1737   86.1783   13.5124 H       1  UNL1        0.1189
      8 H          63.0256   85.8256   11.8912 H       1  UNL1        0.1189
      9 N          61.6128   88.0681   10.0389 N.am    1  UNL1       -0.2728
     10 C          62.0084   86.8368    9.2791 C.3     1  UNL1        0.1600
     11 C          61.1072   86.2931    8.2103 C.3     1  UNL1        0.2823
     12 F          60.5944   85.4034    7.1170 F       1  UNL1       -0.2025
     13 F          62.2259   85.2964    8.1395 F       1  UNL1       -0.2025
     14 C          59.8104   86.9808    7.9014 C.3     1  UNL1        0.0779
     15 C          59.4148   88.2122    8.6613 C.3     1  UNL1        0.0910
     16 C          60.3161   88.7558    9.7300 C.2     1  UNL1        0.2260
     17 O          59.9205   89.9872   10.4899 O.2     1  UNL1       -0.2749
     18 C          64.6691   91.3286   12.8514 C.ar    1  UNL1        0.2241
     19 N          64.9956   91.5134   14.3036 N.ar    1  UNL1       -0.1912
     20 C          65.7458   92.7315   14.7546 C.ar    1  UNL1        0.2037
     21 N          66.1695   93.7648   13.7532 N.ar    1  UNL1       -0.1912
     22 C          65.8430   93.5800   12.3009 C.ar    1  UNL1        0.2241
     23 N          65.0928   92.3619   11.8500 N.ar    1  UNL1       -0.1807
     24 N          66.2667   94.6133   11.2995 N.pl3   1  UNL1       -0.2726
     25 C          66.1331   96.0991   11.4554 C.3     1  UNL1        0.0995
     26 C          66.6823   96.7463   10.2187 C.3     1  UNL1        0.0898
     27 C          67.1553   95.6604    9.2983 C.3     1  UNL1        0.2835
     28 F          67.5272   96.8015    8.3987 F       1  UNL1       -0.2024
     29 F          67.7060   94.8130    8.1899 F       1  UNL1       -0.2024
     30 C          66.8984   94.3421    9.9663 C.3     1  UNL1        0.1602
@<TRIPOS>BOND
     1     2     1    1
     2     2     3    1
     3     3     4    1
     4     4    18    1
     5    18    19   ar
     6    19    20   ar
     7    20    21   ar
     8    21    22   ar
     9    22    24    1
    10    24    25    1
    11    25    26    1
    12    26    27    1
    13    27    28    1
    14    27    29    1
    15    27    30    1
    16    22    23   ar
    17     4     5    1
    18     5     6    1
    19     6     9    1
    20     9    10    1
    21    10    11    1
    22    11    12    1
    23    11    13    1
    24    11    14    1
    25    14    15    1
    26    15    16    1
    27    16    17    2
    28     6     2    1
    29    16     9   am
    30    23    18   ar
    31    30    24    1
    32     1     7    1
    33     1     8    1
@<TRIPOS>MOLECULE
*****
 30 33 0 0 0
SMALL
GASTEIGER

@<TRIPOS>ATOM
      1 N          65.8293   93.3123   11.0804 N.3     1  UNL1       -0.3195
      2 C          64.9504   92.2258   11.6254 C.3     1  UNL1        0.0910
      3 C          63.7856   91.5969   10.9200 C.3     1  UNL1        0.1108
      4 N          63.1973   90.5598   11.8301 N.pl3   1  UNL1       -0.2749
      5 C          63.9986   90.5477   13.0981 C.3     1  UNL1        0.1148
      6 C          65.0820   91.5773   12.9717 C.3     1  UNL1        0.1110
      7 H          65.5148   93.5663   10.1439 H       1  UNL1        0.1189
      8 H          66.7928   92.9806   11.0372 H       1  UNL1        0.1189
      9 N          66.1157   91.9016   14.0092 N.am    1  UNL1       -0.2728
     10 C          67.5660   91.9586   13.6308 C.3     1  UNL1        0.1600
     11 C          68.5996   92.2829   14.6684 C.3     1  UNL1        0.2823
     12 F          69.9396   92.5462   15.2891 F       1  UNL1       -0.2025
     13 F          69.4817   92.1071   13.4679 F       1  UNL1       -0.2025
     14 C          68.1828   92.5502   16.0842 C.3     1  UNL1        0.0779
     15 C          66.7324   92.4932   16.4627 C.3     1  UNL1        0.0910
     16 C          65.6989   92.1689   15.4251 C.2     1  UNL1        0.2260
     17 O          64.2484   92.1119   15.8035 O.2     1  UNL1       -0.2749
     18 C          62.0153   89.6878   11.5257 C.ar    1  UNL1        0.2241
     19 N          60.7652   89.8058   12.3462 N.ar    1  UNL1       -0.1912
     20 C          59.5833   88.9338   12.0418 C.ar    1  UNL1        0.2037
     21 N          59.6515   87.9440   10.9168 N.ar    1  UNL1       -0.1912
     22 C          60.9016   87.8260   10.0963 C.ar    1  UNL1        0.2241
     23 N          62.0835   88.6980   10.4008 N.ar    1  UNL1       -0.1807
     24 N          60.9698   86.8362    8.9714 N.pl3   1  UNL1       -0.2726
     25 C          59.8482   86.4798    8.0413 C.3     1  UNL1        0.0995
     26 C          60.3567   85.4523    7.0741 C.3     1  UNL1        0.0898
     27 C          61.7927   85.1735    7.4063 C.3     1  UNL1        0.2835
     28 F          61.7104   84.2183    6.2529 F       1  UNL1       -0.2024
     29 F          63.2114   84.6951    7.4975 F       1  UNL1       -0.2024
     30 C          62.1715   86.0288    8.5789 C.3     1  UNL1        0.1602
@<TRIPOS>BOND
     1     2     1    1
     2     2     3    1
     3     3     4    1
     4     4    18    1
     5    18    19   ar
     6    19    20   ar
     7    20    21   ar
     8    21    22   ar
     9    22    24    1
    10    24    25    1
    11    25    26    1
    12    26    27    1
    13    27    28    1
    14    27    29    1
    15    27    30    1
    16    22    23   ar
    17     4     5    1
    18     5     6    1
    19     6     9    1
    20     9    10    1
    21    10    11    1
    22    11    12    1
    23    11    13    1
    24    11    14    1
    25    14    15    1
    26    15    16    1
    27    16    17    2
    28     6     2    1
    29    16     9   am
    30    23    18   ar
    31    30    24    1
    32     1     7    1
    33     1     8    1
@<TRIPOS>MOLECULE
*****
 30 33 0 0 0
SMALL
GASTEIGER

@<TRIPOS>ATOM
      1 N          67.6522   94.2709   14.5810 N.3     1  UNL1       -0.3195
      2 C          66.7684   93.1019   14.2612 C.3     1  UNL1        0.0910
      3 C          66.1308   92.1799   15.2578 C.3     1  UNL1        0.1108
      4 N          65.3353   91.1578   14.5011 N.pl3   1  UNL1       -0.2749
      5 C          65.4814   91.4481   13.0367 C.3     1  UNL1        0.1148
      6 C          66.3671   92.6496   12.8884 C.3     1  UNL1        0.1110
      7 H          67.7589   94.3497   15.5924 H       1  UNL1        0.1189
      8 H          67.2314   95.1252   14.2159 H       1  UNL1        0.1189
      9 N          66.7791   93.2869   11.5945 N.am    1  UNL1       -0.2728
     10 C          67.4266   92.4597   10.5238 C.3     1  UNL1        0.1600
     11 C          67.8387   93.0970    9.2299 C.3     1  UNL1        0.2823
     12 F          68.4002   93.2434    7.8467 F       1  UNL1       -0.2025
     13 F          68.2691   91.6833    8.9727 F       1  UNL1       -0.2025
     14 C          67.6032   94.5614    9.0069 C.3     1  UNL1        0.0779
     15 C          66.9557   95.3887   10.0776 C.3     1  UNL1        0.0910
     16 C          66.5437   94.7514   11.3714 C.2     1  UNL1        0.2260
     17 O          65.8962   95.5786   12.4422 O.2     1  UNL1       -0.2749
     18 C          64.5344   90.0414   15.1031 C.ar    1  UNL1        0.2241
     19 N          63.6013   90.3185   16.2442 N.ar    1  UNL1       -0.1912
     20 C          62.8004   89.2022   16.8462 C.ar    1  UNL1        0.2037
     21 N          62.9327   87.8087   16.3069 N.ar    1  UNL1       -0.1912
     22 C          63.8659   87.5316   15.1657 C.ar    1  UNL1        0.2241
     23 N          64.6667   88.6480   14.5638 N.ar    1  UNL1       -0.1807
     24 N          63.9982   86.1382   14.6264 N.pl3   1  UNL1       -0.2726
     25 C          64.5535   84.9562   15.3644 C.3     1  UNL1        0.0995
     26 C          64.4970   83.7696   14.4486 C.3     1  UNL1        0.0898
     27 C          63.9067   84.2182   13.1446 C.3     1  UNL1        0.2835
     28 F          64.1000   82.7856   12.7446 F       1  UNL1       -0.2024
     29 F          63.3569   84.3673   11.7570 F       1  UNL1       -0.2024
     30 C          63.5985   85.6821   13.2545 C.3     1  UNL1        0.1602
@<TRIPOS>BOND
     1     2     1    1
     2     2     3    1
     3     3     4    1
     4     4    18    1
     5    18    19   ar
     6    19    20   ar
     7    20    21   ar
     8    21    22   ar
     9    22    24    1
    10    24    25    1
    11    25    26    1
    12    26    27    1
    13    27    28    1
    14    27    29    1
    15    27    30    1
    16    22    23   ar
    17     4     5    1
    18     5     6    1
    19     6     9    1
    20     9    10    1
    21    10    11    1
    22    11    12    1
    23    11    13    1
    24    11    14    1
    25    14    15    1
    26    15    16    1
    27    16    17    2
    28     6     2    1
    29    16     9   am
    30    23    18   ar
    31    30    24    1
    32     1     7    1
    33     1     8    1
@<TRIPOS>MOLECULE
*****
 30 33 0 0 0
SMALL
GASTEIGER

@<TRIPOS>ATOM
      1 N          61.0859   86.4589   10.2771 N.3     1  UNL1       -0.3195
      2 C          62.0505   87.0032   11.2887 C.3     1  UNL1        0.0910
      3 C          62.3793   88.4508   11.5037 C.3     1  UNL1        0.1108
      4 N          63.3877   88.5376   12.6108 N.pl3   1  UNL1       -0.2749
      5 C          63.6821   87.1437   13.0801 C.3     1  UNL1        0.1148
      6 C          62.8557   86.1953   12.2630 C.3     1  UNL1        0.1110
      7 H          60.6785   87.2292    9.7470 H       1  UNL1        0.1189
      8 H          60.3452   85.9460   10.7553 H       1  UNL1        0.1189
      9 N          62.8376   84.7014   12.3966 N.am    1  UNL1       -0.2728
     10 C          63.2206   83.8393   11.2304 C.3     1  UNL1        0.1600
     11 C          63.2026   82.3454   11.3640 C.3     1  UNL1        0.2823
     12 F          63.3404   80.8961   11.0027 F       1  UNL1       -0.2025
     13 F          63.6515   82.4740    9.9386 F       1  UNL1       -0.2025
     14 C          62.8015   81.7136   12.6639 C.3     1  UNL1        0.0779
     15 C          62.4185   82.5756   13.8303 C.3     1  UNL1        0.0910
     16 C          62.4366   84.0694   13.6966 C.2     1  UNL1        0.2260
     17 O          62.0536   84.9316   14.8629 O.2     1  UNL1       -0.2749
     18 C          63.9950   89.7974   13.1534 C.ar    1  UNL1        0.2241
     19 N          63.9391   90.0836   14.6248 N.ar    1  UNL1       -0.1912
     20 C          64.5464   91.3433   15.1673 C.ar    1  UNL1        0.2037
     21 N          65.2096   92.3167   14.2385 N.ar    1  UNL1       -0.1912
     22 C          65.2655   92.0304   12.7672 C.ar    1  UNL1        0.2241
     23 N          64.6582   90.7707   12.2246 N.ar    1  UNL1       -0.1807
     24 N          65.9287   93.0038   11.8384 N.pl3   1  UNL1       -0.2726
     25 C          65.9826   94.4926   12.0132 C.3     1  UNL1        0.0995
     26 C          66.7417   95.0682   10.8545 C.3     1  UNL1        0.0898
     27 C          67.1569   93.9352    9.9636 C.3     1  UNL1        0.2835
     28 F          67.7731   95.0216    9.1330 F       1  UNL1       -0.2024
     29 F          67.7010   93.0292    8.8991 F       1  UNL1       -0.2024
     30 C          66.6545   92.6593   10.5717 C.3     1  UNL1        0.1602
@<TRIPOS>BOND
     1     2     1    1
     2     2     3    1
     3     3     4    1
     4     4    18    1
     5    18    19   ar
     6    19    20   ar
     7    20    21   ar
     8    21    22   ar
     9    22    24    1
    10    24    25    1
    11    25    26    1
    12    26    27    1
    13    27    28    1
    14    27    29    1
    15    27    30    1
    16    22    23   ar
    17     4     5    1
    18     5     6    1
    19     6     9    1
    20     9    10    1
    21    10    11    1
    22    11    12    1
    23    11    13    1
    24    11    14    1
    25    14    15    1
    26    15    16    1
    27    16    17    2
    28     6     2    1
    29    16     9   am
    30    23    18   ar
    31    30    24    1
    32     1     7    1
    33     1     8    1
@<TRIPOS>MOLECULE
*****
 30 33 0 0 0
SMALL
GASTEIGER

@<TRIPOS>ATOM
      1 N          69.2017   92.3470   13.5237 N.3     1  UNL1       -0.3195
      2 C          67.7623   91.9283   13.5750 C.3     1  UNL1        0.0910
      3 C          67.1542   90.9815   14.5669 C.3     1  UNL1        0.1108
      4 N          65.6942   90.8510   14.2483 N.pl3   1  UNL1       -0.2749
      5 C          65.4000   91.7171   13.0595 C.3     1  UNL1        0.1148
      6 C          66.6780   92.3830   12.6434 C.3     1  UNL1        0.1110
      7 H          69.7167   91.8866   14.2742 H       1  UNL1        0.1189
      8 H          69.2659   93.3585   13.6381 H       1  UNL1        0.1189
      9 N          66.8430   93.3361   11.4969 N.am    1  UNL1       -0.2728
     10 C          66.1552   94.6688   11.5247 C.3     1  UNL1        0.1600
     11 C          66.3202   95.6219   10.3782 C.3     1  UNL1        0.2823
     12 F          66.1710   96.8557    9.5382 F       1  UNL1       -0.2025
     13 F          65.4156   96.4300   11.2607 F       1  UNL1       -0.2025
     14 C          67.1729   95.2423    9.2041 C.3     1  UNL1        0.0779
     15 C          67.8607   93.9095    9.1763 C.3     1  UNL1        0.0910
     16 C          67.6957   92.9565   10.3227 C.2     1  UNL1        0.2260
     17 O          68.3835   91.6236   10.2950 O.2     1  UNL1       -0.2749
     18 C          64.7026   90.0032   14.9886 C.ar    1  UNL1        0.2241
     19 N          63.7423   90.6386   15.9498 N.ar    1  UNL1       -0.1912
     20 C          62.7508   89.7908   16.6900 C.ar    1  UNL1        0.2037
     21 N          62.7196   88.3075   16.4690 N.ar    1  UNL1       -0.1912
     22 C          63.6799   87.6720   15.5078 C.ar    1  UNL1        0.2241
     23 N          64.6714   88.5198   14.7676 N.ar    1  UNL1       -0.1807
     24 N          63.6487   86.1887   15.2869 N.pl3   1  UNL1       -0.2726
     25 C          62.9192   85.1866   16.1316 C.3     1  UNL1        0.0995
     26 C          63.1611   83.8256   15.5492 C.3     1  UNL1        0.0898
     27 C          64.0401   83.9866   14.3444 C.3     1  UNL1        0.2835
     28 F          63.9172   82.4947   14.2506 F       1  UNL1       -0.2024
     29 F          64.8934   83.8357   13.1201 F       1  UNL1       -0.2024
     30 C          64.3414   85.4470   14.1823 C.3     1  UNL1        0.1602
@<TRIPOS>BOND
     1     2     1    1
     2     2     3    1
     3     3     4    1
     4     4    18    1
     5    18    19   ar
     6    19    20   ar
     7    20    21   ar
     8    21    22   ar
     9    22    24    1
    10    24    25    1
    11    25    26    1
    12    26    27    1
    13    27    28    1
    14    27    29    1
    15    27    30    1
    16    22    23   ar
    17     4     5    1
    18     5     6    1
    19     6     9    1
    20     9    10    1
    21    10    11    1
    22    11    12    1
    23    11    13    1
    24    11    14    1
    25    14    15    1
    26    15    16    1
    27    16    17    2
    28     6     2    1
    29    16     9   am
    30    23    18   ar
    31    30    24    1
    32     1     7    1
    33     1     8    1
@<TRIPOS>MOLECULE
*****
 30 33 0 0 0
SMALL
GASTEIGER

@<TRIPOS>ATOM
      1 N          60.9255   86.9726   10.4680 N.3     1  UNL1       -0.3195
      2 C          61.9816   87.4787   11.4052 C.3     1  UNL1        0.0910
      3 C          62.3867   88.9116   11.5860 C.3     1  UNL1        0.1108
      4 N          63.4736   88.9593   12.6187 N.pl3   1  UNL1       -0.2749
      5 C          63.7402   87.5559   13.0762 C.3     1  UNL1        0.1148
      6 C          62.8182   86.6408   12.3262 C.3     1  UNL1        0.1110
      7 H          60.5152   87.7576    9.9623 H       1  UNL1        0.1189
      8 H          60.1990   86.4943   11.0008 H       1  UNL1        0.1189
      9 N          62.7454   85.1497   12.4716 N.am    1  UNL1       -0.2728
     10 C          62.5360   84.5374   13.8249 C.3     1  UNL1        0.1600
     11 C          62.4633   83.0463   13.9703 C.3     1  UNL1        0.2823
     12 F          62.3266   81.6977   14.6127 F       1  UNL1       -0.2025
     13 F          62.2791   83.4569   15.4013 F       1  UNL1       -0.2025
     14 C          62.5999   82.1674   12.7625 C.3     1  UNL1        0.0779
     15 C          62.8093   82.7796   11.4092 C.3     1  UNL1        0.0910
     16 C          62.8821   84.2707   11.2638 C.2     1  UNL1        0.2260
     17 O          63.0915   84.8830    9.9105 O.2     1  UNL1       -0.2749
     18 C          64.1713   90.1938   13.1080 C.ar    1  UNL1        0.2241
     19 N          64.2581   90.4729   14.5793 N.ar    1  UNL1       -0.1912
     20 C          64.9558   91.7073   15.0685 C.ar    1  UNL1        0.2037
     21 N          65.5666   92.6626   14.0866 N.ar    1  UNL1       -0.1912
     22 C          65.4798   92.3835   12.6154 C.ar    1  UNL1        0.2241
     23 N          64.7822   91.1491   12.1261 N.ar    1  UNL1       -0.1807
     24 N          66.0907   93.3388   11.6334 N.pl3   1  UNL1       -0.2726
     25 C          66.0752   94.8354   11.7329 C.3     1  UNL1        0.0995
     26 C          66.7993   95.3868   10.5405 C.3     1  UNL1        0.0898
     27 C          67.2623   94.2310    9.7041 C.3     1  UNL1        0.2835
     28 F          67.8214   95.3018    8.8150 F       1  UNL1       -0.2024
     29 F          67.8422   93.2990    8.6818 F       1  UNL1       -0.2024
     30 C          66.8244   92.9652   10.3795 C.3     1  UNL1        0.1602
@<TRIPOS>BOND
     1     2     1    1
     2     2     3    1
     3     3     4    1
     4     4    18    1
     5    18    19   ar
     6    19    20   ar
     7    20    21   ar
     8    21    22   ar
     9    22    24    1
    10    24    25    1
    11    25    26    1
    12    26    27    1
    13    27    28    1
    14    27    29    1
    15    27    30    1
    16    22    23   ar
    17     4     5    1
    18     5     6    1
    19     6     9    1
    20     9    10    1
    21    10    11    1
    22    11    12    1
    23    11    13    1
    24    11    14    1
    25    14    15    1
    26    15    16    1
    27    16    17    2
    28     6     2    1
    29    16     9   am
    30    23    18   ar
    31    30    24    1
    32     1     7    1
    33     1     8    1
@<TRIPOS>MOLECULE
*****
 30 33 0 0 0
SMALL
GASTEIGER

@<TRIPOS>ATOM
      1 N          60.1647   90.3469    9.1557 N.3     1  UNL1       -0.3195
      2 C          61.0673   89.8367   10.2397 C.3     1  UNL1        0.0910
      3 C          61.5225   90.6073   11.4434 C.3     1  UNL1        0.1108
      4 N          62.4097   89.7132   12.2579 N.pl3   1  UNL1       -0.2749
      5 C          62.5029   88.3900   11.5576 C.3     1  UNL1        0.1148
      6 C          61.6732   88.4663   10.3103 C.3     1  UNL1        0.1110
      7 H          59.9004   91.3108    9.3589 H       1  UNL1        0.1189
      8 H          59.3268   89.7670    9.1100 H       1  UNL1        0.1189
      9 N          61.4829   87.3655    9.3093 N.am    1  UNL1       -0.2728
     10 C          62.6592   86.5530    8.8552 C.3     1  UNL1        0.1600
     11 C          62.4689   85.4522    7.8542 C.3     1  UNL1        0.2823
     12 F          62.7921   84.3143    6.9319 F       1  UNL1       -0.2025
     13 F          63.9478   85.3454    8.0808 F       1  UNL1       -0.2025
     14 C          61.1023   85.1639    7.3073 C.3     1  UNL1        0.0779
     15 C          59.9259   85.9764    7.7614 C.3     1  UNL1        0.0910
     16 C          60.1163   87.0771    8.7623 C.2     1  UNL1        0.2260
     17 O          58.9399   87.8897    9.2165 O.2     1  UNL1       -0.2749
     18 C          63.0852   90.0783   13.5465 C.ar    1  UNL1        0.2241
     19 N          62.4234   89.7642   14.8555 N.ar    1  UNL1       -0.1912
     20 C          63.0989   90.1293   16.1440 C.ar    1  UNL1        0.2037
     21 N          64.4362   90.8085   16.1236 N.ar    1  UNL1       -0.1912
     22 C          65.0980   91.1225   14.8147 C.ar    1  UNL1        0.2241
     23 N          64.4225   90.7575   13.5262 N.ar    1  UNL1       -0.1807
     24 N          66.4353   91.8017   14.7943 N.pl3   1  UNL1       -0.2726
     25 C          67.4980   91.6251   13.7506 C.3     1  UNL1        0.0995
     26 C          68.6642   92.4909   14.1253 C.3     1  UNL1        0.0898
     27 C          68.3222   93.2027   15.4006 C.3     1  UNL1        0.2835
     28 F          69.6878   93.8037   15.2470 F       1  UNL1       -0.2024
     29 F          68.2656   94.0400   16.6438 F       1  UNL1       -0.2024
     30 C          66.9446   92.7767   15.8141 C.3     1  UNL1        0.1602
@<TRIPOS>BOND
     1     2     1    1
     2     2     3    1
     3     3     4    1
     4     4    18    1
     5    18    19   ar
     6    19    20   ar
     7    20    21   ar
     8    21    22   ar
     9    22    24    1
    10    24    25    1
    11    25    26    1
    12    26    27    1
    13    27    28    1
    14    27    29    1
    15    27    30    1
    16    22    23   ar
    17     4     5    1
    18     5     6    1
    19     6     9    1
    20     9    10    1
    21    10    11    1
    22    11    12    1
    23    11    13    1
    24    11    14    1
    25    14    15    1
    26    15    16    1
    27    16    17    2
    28     6     2    1
    29    16     9   am
    30    23    18   ar
    31    30    24    1
    32     1     7    1
    33     1     8    1
@<TRIPOS>MOLECULE
*****
 30 33 0 0 0
SMALL
GASTEIGER

@<TRIPOS>ATOM
      1 N          67.0870   93.1552   13.5975 N.3     1  UNL1       -0.3195
      2 C          65.9861   92.6417   12.7175 C.3     1  UNL1        0.0910
      3 C          65.0843   91.4817   13.0196 C.3     1  UNL1        0.1108
      4 N          64.1346   91.3212   11.8697 N.pl3   1  UNL1       -0.2749
      5 C          64.4493   92.3820   10.8570 C.3     1  UNL1        0.1148
      6 C          65.5936   93.1981   11.3810 C.3     1  UNL1        0.1110
      7 H          67.1347   92.5914   14.4462 H       1  UNL1        0.1189
      8 H          66.8994   94.1268   13.8448 H       1  UNL1        0.1189
      9 N          66.2331   94.3657   10.6897 N.am    1  UNL1       -0.2728
     10 C          66.7625   94.2133    9.2946 C.3     1  UNL1        0.1600
     11 C          67.4020   95.3809    8.6033 C.3     1  UNL1        0.2823
     12 F          68.0858   96.1873    7.5393 F       1  UNL1       -0.2025
     13 F          67.5294   94.3409    7.5299 F       1  UNL1       -0.2025
     14 C          67.5121   96.7008    9.3073 C.3     1  UNL1        0.0779
     15 C          66.9826   96.8533   10.7025 C.3     1  UNL1        0.0910
     16 C          66.3432   95.6857   11.3936 C.2     1  UNL1        0.2260
     17 O          65.8137   95.8381   12.7889 O.2     1  UNL1       -0.2749
     18 C          63.0589   90.2822   11.7531 C.ar    1  UNL1        0.2241
     19 N          61.6419   90.6963   11.4872 N.ar    1  UNL1       -0.1912
     20 C          60.5663   89.6573   11.3706 C.ar    1  UNL1        0.2037
     21 N          60.9077   88.2043   11.5199 N.ar    1  UNL1       -0.1912
     22 C          62.3247   87.7903   11.7858 C.ar    1  UNL1        0.2241
     23 N          63.4002   88.8292   11.9024 N.ar    1  UNL1       -0.1807
     24 N          62.6660   86.3373   11.9352 N.pl3   1  UNL1       -0.2726
     25 C          62.3199   85.2461   10.9659 C.3     1  UNL1        0.0995
     26 C          62.8534   83.9548   11.5116 C.3     1  UNL1        0.0898
     27 C          63.5293   84.2479   12.8183 C.3     1  UNL1        0.2835
     28 F          63.7981   82.7723   12.8302 F       1  UNL1       -0.2024
     29 F          64.2614   84.2325   14.1274 F       1  UNL1       -0.2024
     30 C          63.4135   85.7203   13.0800 C.3     1  UNL1        0.1602
@<TRIPOS>BOND
     1     2     1    1
     2     2     3    1
     3     3     4    1
     4     4    18    1
     5    18    19   ar
     6    19    20   ar
     7    20    21   ar
     8    21    22   ar
     9    22    24    1
    10    24    25    1
    11    25    26    1
    12    26    27    1
    13    27    28    1
    14    27    29    1
    15    27    30    1
    16    22    23   ar
    17     4     5    1
    18     5     6    1
    19     6     9    1
    20     9    10    1
    21    10    11    1
    22    11    12    1
    23    11    13    1
    24    11    14    1
    25    14    15    1
    26    15    16    1
    27    16    17    2
    28     6     2    1
    29    16     9   am
    30    23    18   ar
    31    30    24    1
    32     1     7    1
    33     1     8    1
