@<TRIPOS>MOLECULE
*****
 45 51 0 0 0
SMALL
GASTEIGER

@<TRIPOS>ATOM
      1 C          64.0652   90.8483   13.2084 C.ar    1  UNL1        0.0349
      2 C          65.2993   91.5394   12.7091 C.ar    1  UNL1        0.0616
      3 N          65.1430   91.7587   11.2334 N.ar    1  UNL1       -0.3229
      4 C          63.8121   91.2032   10.8208 C.ar    1  UNL1        0.0602
      5 C          63.1207   91.1370    9.4913 C.ar    1  UNL1        0.0172
      6 C          61.7633   90.5082    9.3823 C.ar    1  UNL1        0.0015
      7 C          61.0972   89.9456   10.6029 C.ar    1  UNL1        0.0001
      8 C          61.7886   90.0118   11.9324 C.ar    1  UNL1        0.0015
      9 C          63.1461   90.6406   12.0413 C.ar    1  UNL1        0.0186
     10 C          63.6843   86.0738   15.7200 C.ar    1  UNL1        0.1739
     11 C          63.4540   87.1171   16.7727 C.ar    1  UNL1        0.0592
     12 C          63.4916   88.5717   16.4080 C.ar    1  UNL1        0.0877
     13 N          63.2613   89.6150   17.4608 N.ar    1  UNL1       -0.2238
     14 C          63.2990   91.0695   17.0960 C.ar    1  UNL1        0.1988
     15 N          63.5669   91.4806   15.6786 N.ar    1  UNL1       -0.2239
     16 C          63.7972   90.4372   14.6258 C.ar    1  UNL1        0.0860
     17 C          63.7596   88.9828   14.9906 C.ar    1  UNL1        0.0387
     18 C          63.9899   87.9393   13.9378 C.ar    1  UNL1        0.0430
     19 C          63.9523   86.4849   14.3025 C.ar    1  UNL1        0.1723
     20 C          62.4523   83.7864   15.7246 C.3     1  UNL1        0.2526
     21 O          63.6467   84.6192   16.0847 O.3     1  UNL1       -0.4683
     22 O          64.1826   85.4414   13.2498 O.3     1  UNL1       -0.4724
     23 C          63.0237   84.8929   12.4712 C.3     1  UNL1        0.2070
     24 C          62.0141   85.8262   11.8715 C.3     1  UNL1        0.0646
     25 C          62.3508   86.5983   10.6303 C.3     1  UNL1        0.0761
     26 N          61.8733   86.1142    9.2933 N.3     1  UNL1       -0.2683
     27 C          62.8082   85.3680    8.3881 C.3     1  UNL1        0.1046
     28 C          62.3306   84.8840    7.0510 C.3     1  UNL1        0.1595
     29 O          60.9183   85.1461    6.6192 O.3     1  UNL1       -0.3508
     30 C          59.9834   85.8922    7.5244 C.3     1  UNL1        0.1595
     31 C          60.4609   86.3763    8.8614 C.3     1  UNL1        0.1046
     32 C          66.4823   91.9407   13.5396 C.ar    1  UNL1        0.0159
     33 C          66.2812   92.7288   14.7998 C.ar    1  UNL1        0.0014
     34 C          67.4641   93.1301   15.6303 C.ar    1  UNL1        0.0000
     35 C          68.8482   92.7432   15.2005 C.ar    1  UNL1        0.0000
     36 C          69.0493   91.9550   13.9402 C.ar    1  UNL1        0.0000
     37 C          67.8664   91.5537   13.1097 C.ar    1  UNL1        0.0014
     38 C          66.1420   92.4178   10.3293 C.3     1  UNL1        0.1332
     39 C          66.3730   93.8972   10.4187 C.ar    1  UNL1        0.0066
     40 C          65.6368   94.7107   11.4416 C.ar    1  UNL1       -0.0019
     41 C          65.8678   96.1901   11.5311 C.ar    1  UNL1       -0.0002
     42 C          66.8349   96.8560   10.5977 C.ar    1  UNL1        0.0005
     43 C          67.5710   96.0426    9.5748 C.ar    1  UNL1        0.0064
     44 C          67.3401   94.5631    9.4853 C.ar    1  UNL1        0.0324
     45 BR         68.0762   93.7496    8.4625 Br      1  UNL1       -0.0493
@<TRIPOS>BOND
     1    20    21    1
     2    21    10    1
     3    10    11   ar
     4    11    12   ar
     5    12    13   ar
     6    13    14   ar
     7    14    15   ar
     8    15    16   ar
     9    16     1    1
    10     1     2   ar
    11     2    32    1
    12    32    33   ar
    13    33    34   ar
    14    34    35   ar
    15    35    36   ar
    16    36    37   ar
    17     2     3   ar
    18     3    38    1
    19    38    39    1
    20    39    40   ar
    21    40    41   ar
    22    41    42   ar
    23    42    43   ar
    24    43    44   ar
    25    44    45    1
    26     3     4   ar
    27     4     5   ar
    28     5     6   ar
    29     6     7   ar
    30     7     8   ar
    31     8     9   ar
    32    16    17   ar
    33    17    18   ar
    34    18    19   ar
    35    19    22    1
    36    22    23    1
    37    23    24    1
    38    24    25    1
    39    25    26    1
    40    26    27    1
    41    27    28    1
    42    28    29    1
    43    29    30    1
    44    30    31    1
    45    19    10   ar
    46    31    26    1
    47    17    12   ar
    48     9     1   ar
    49    37    32   ar
    50    44    39   ar
    51     9     4   ar
@<TRIPOS>MOLECULE
*****
 45 51 0 0 0
SMALL
GASTEIGER

@<TRIPOS>ATOM
      1 C          64.3851   91.0817   13.4066 C.ar    1  UNL1        0.0349
      2 C          65.6463   91.7954   13.0195 C.ar    1  UNL1        0.0616
      3 N          65.5849   92.0802   11.5480 N.ar    1  UNL1       -0.3229
      4 C          64.2857   91.5425   11.0257 C.ar    1  UNL1        0.0602
      5 C          63.6820   91.5350    9.6526 C.ar    1  UNL1        0.0172
      6 C          62.3368   90.9105    9.4281 C.ar    1  UNL1        0.0015
      7 C          61.5953   90.2934   10.5767 C.ar    1  UNL1        0.0001
      8 C          62.1990   90.3008   11.9499 C.ar    1  UNL1        0.0015
      9 C          63.5442   90.9254   12.1743 C.ar    1  UNL1        0.0186
     10 C          63.5135   86.2097   15.5870 C.ar    1  UNL1        0.1739
     11 C          63.3273   87.2015   16.6967 C.ar    1  UNL1        0.0592
     12 C          63.4987   88.6675   16.4291 C.ar    1  UNL1        0.0877
     13 N          63.3124   89.6592   17.5389 N.ar    1  UNL1       -0.2238
     14 C          63.4838   91.1252   17.2712 C.ar    1  UNL1        0.1988
     15 N          63.8413   91.5993   15.8938 N.ar    1  UNL1       -0.2239
     16 C          64.0275   90.6075   14.7840 C.ar    1  UNL1        0.0860
     17 C          63.8562   89.1416   15.0517 C.ar    1  UNL1        0.0387
     18 C          64.0424   88.1498   13.9419 C.ar    1  UNL1        0.0430
     19 C          63.8711   86.6838   14.2095 C.ar    1  UNL1        0.1723
     20 C          62.0974   84.0393   15.4027 C.3     1  UNL1        0.2526
     21 O          63.3422   84.7437   15.8546 O.3     1  UNL1       -0.4683
     22 O          64.0573   85.6920   13.0997 O.3     1  UNL1       -0.4724
     23 C          62.9121   85.3619   12.1889 C.3     1  UNL1        0.2070
     24 C          63.1763   84.7726   10.8351 C.3     1  UNL1        0.0646
     25 C          63.3623   83.2918   10.6849 C.3     1  UNL1        0.0761
     26 N          63.2943   82.4014   11.8901 N.3     1  UNL1       -0.2683
     27 C          62.0458   81.6208   12.1764 C.3     1  UNL1        0.1046
     28 C          61.9778   80.7303   13.3816 C.3     1  UNL1        0.1595
     29 O          63.1583   80.6204   14.3004 O.3     1  UNL1       -0.3508
     30 C          64.4068   81.4010   14.0141 C.3     1  UNL1        0.1595
     31 C          64.4748   82.2914   12.8090 C.3     1  UNL1        0.1046
     32 C          66.7715   92.1602   13.9419 C.ar    1  UNL1        0.0159
     33 C          66.5182   93.0608   15.1144 C.ar    1  UNL1        0.0014
     34 C          67.6434   93.4256   16.0368 C.ar    1  UNL1        0.0000
     35 C          69.0220   92.8900   15.7867 C.ar    1  UNL1        0.0000
     36 C          69.2754   91.9894   14.6142 C.ar    1  UNL1        0.0000
     37 C          68.1502   91.6245   13.6917 C.ar    1  UNL1        0.0014
     38 C          66.6379   92.7798   10.7407 C.3     1  UNL1        0.1332
     39 C          66.3629   94.1374   10.1652 C.ar    1  UNL1        0.0066
     40 C          65.3326   95.0255   10.7976 C.ar    1  UNL1       -0.0019
     41 C          65.0576   96.3831   10.2220 C.ar    1  UNL1       -0.0002
     42 C          65.8129   96.8526    9.0140 C.ar    1  UNL1        0.0005
     43 C          66.8431   95.9646    8.3816 C.ar    1  UNL1        0.0064
     44 C          67.1181   94.6069    8.9572 C.ar    1  UNL1        0.0324
     45 BR         68.1483   93.7188    8.3248 Br      1  UNL1       -0.0493
@<TRIPOS>BOND
     1    20    21    1
     2    21    10    1
     3    10    11   ar
     4    11    12   ar
     5    12    13   ar
     6    13    14   ar
     7    14    15   ar
     8    15    16   ar
     9    16     1    1
    10     1     2   ar
    11     2    32    1
    12    32    33   ar
    13    33    34   ar
    14    34    35   ar
    15    35    36   ar
    16    36    37   ar
    17     2     3   ar
    18     3    38    1
    19    38    39    1
    20    39    40   ar
    21    40    41   ar
    22    41    42   ar
    23    42    43   ar
    24    43    44   ar
    25    44    45    1
    26     3     4   ar
    27     4     5   ar
    28     5     6   ar
    29     6     7   ar
    30     7     8   ar
    31     8     9   ar
    32    16    17   ar
    33    17    18   ar
    34    18    19   ar
    35    19    22    1
    36    22    23    1
    37    23    24    1
    38    24    25    1
    39    25    26    1
    40    26    27    1
    41    27    28    1
    42    28    29    1
    43    29    30    1
    44    30    31    1
    45    19    10   ar
    46    31    26    1
    47    17    12   ar
    48     9     1   ar
    49    37    32   ar
    50    44    39   ar
    51     9     4   ar
@<TRIPOS>MOLECULE
*****
 45 51 0 0 0
SMALL
GASTEIGER

@<TRIPOS>ATOM
      1 C          63.8104   90.1367   13.6851 C.ar    1  UNL1        0.0349
      2 C          63.4523   88.6802   13.6991 C.ar    1  UNL1        0.0616
      3 N          63.0374   88.2914   12.3110 N.ar    1  UNL1       -0.3229
      4 C          63.1391   89.5077   11.4391 C.ar    1  UNL1        0.0602
      5 C          62.8585   89.7242    9.9816 C.ar    1  UNL1        0.0172
      6 C          63.0555   91.0811    9.3733 C.ar    1  UNL1        0.0015
      7 C          63.5332   92.2215   10.2226 C.ar    1  UNL1        0.0001
      8 C          63.8139   92.0051   11.6801 C.ar    1  UNL1        0.0015
      9 C          63.6169   90.6482   12.2884 C.ar    1  UNL1        0.0186
     10 C          68.4052   92.7378   14.8565 C.ar    1  UNL1        0.1739
     11 C          67.4993   92.9427   16.0343 C.ar    1  UNL1        0.0592
     12 C          66.1241   92.3436   16.0360 C.ar    1  UNL1        0.0877
     13 N          65.2182   92.5485   17.2138 N.ar    1  UNL1       -0.2238
     14 C          63.8430   91.9495   17.2154 C.ar    1  UNL1        0.1988
     15 N          63.3738   91.1455   16.0392 N.ar    1  UNL1       -0.2239
     16 C          64.2797   90.9406   14.8614 C.ar    1  UNL1        0.0860
     17 C          65.6548   91.5397   14.8598 C.ar    1  UNL1        0.0387
     18 C          66.5608   91.3348   13.6819 C.ar    1  UNL1        0.0430
     19 C          67.9360   91.9338   13.6803 C.ar    1  UNL1        0.1723
     20 C          70.1150   94.4494   15.8037 C.3     1  UNL1        0.2526
     21 O          69.7805   93.3368   14.8549 O.3     1  UNL1       -0.4683
     22 O          68.8419   91.7290   12.5024 O.3     1  UNL1       -0.4724
     23 C          68.2655   91.6295   11.1212 C.3     1  UNL1        0.2070
     24 C          68.8875   92.3960    9.9919 C.3     1  UNL1        0.0646
     25 C          68.0169   93.1080    8.9994 C.3     1  UNL1        0.0761
     26 N          67.2898   94.3573    9.4000 N.3     1  UNL1       -0.2683
     27 C          67.2585   95.5367    8.4737 C.3     1  UNL1        0.1046
     28 C          66.5313   96.7860    8.8745 C.3     1  UNL1        0.1595
     29 O          65.8354   96.8559   10.2014 O.3     1  UNL1       -0.3508
     30 C          65.8667   95.6765   11.1277 C.3     1  UNL1        0.1595
     31 C          66.5938   94.4272   10.7271 C.3     1  UNL1        0.1046
     32 C          63.5006   87.7718   14.8918 C.ar    1  UNL1        0.0159
     33 C          64.2511   86.4753   14.8173 C.ar    1  UNL1        0.0014
     34 C          64.2994   85.5669   16.0100 C.ar    1  UNL1        0.0000
     35 C          63.5970   85.9550   17.2773 C.ar    1  UNL1        0.0000
     36 C          62.8464   87.2516   17.3519 C.ar    1  UNL1        0.0000
     37 C          62.7982   88.1600   16.1592 C.ar    1  UNL1        0.0014
     38 C          62.5980   86.9261   11.8720 C.3     1  UNL1        0.1332
     39 C          61.8620   86.7558   10.5762 C.ar    1  UNL1        0.0066
     40 C          62.4791   85.9641    9.4615 C.ar    1  UNL1       -0.0019
     41 C          61.7430   85.7938    8.1657 C.ar    1  UNL1       -0.0002
     42 C          60.3899   86.4151    7.9845 C.ar    1  UNL1        0.0005
     43 C          59.7727   87.2067    9.0990 C.ar    1  UNL1        0.0064
     44 C          60.5088   87.3771   10.3950 C.ar    1  UNL1        0.0324
     45 BR         59.8917   88.1687   11.5096 Br      1  UNL1       -0.0493
@<TRIPOS>BOND
     1    20    21    1
     2    21    10    1
     3    10    11   ar
     4    11    12   ar
     5    12    13   ar
     6    13    14   ar
     7    14    15   ar
     8    15    16   ar
     9    16     1    1
    10     1     2   ar
    11     2    32    1
    12    32    33   ar
    13    33    34   ar
    14    34    35   ar
    15    35    36   ar
    16    36    37   ar
    17     2     3   ar
    18     3    38    1
    19    38    39    1
    20    39    40   ar
    21    40    41   ar
    22    41    42   ar
    23    42    43   ar
    24    43    44   ar
    25    44    45    1
    26     3     4   ar
    27     4     5   ar
    28     5     6   ar
    29     6     7   ar
    30     7     8   ar
    31     8     9   ar
    32    16    17   ar
    33    17    18   ar
    34    18    19   ar
    35    19    22    1
    36    22    23    1
    37    23    24    1
    38    24    25    1
    39    25    26    1
    40    26    27    1
    41    27    28    1
    42    28    29    1
    43    29    30    1
    44    30    31    1
    45    19    10   ar
    46    31    26    1
    47    17    12   ar
    48     9     1   ar
    49    37    32   ar
    50    44    39   ar
    51     9     4   ar
@<TRIPOS>MOLECULE
*****
 45 51 0 0 0
SMALL
GASTEIGER

@<TRIPOS>ATOM
      1 C          63.1764   90.0948   12.8073 C.ar    1  UNL1        0.0349
      2 C          64.0952   89.6642   13.9120 C.ar    1  UNL1        0.0616
      3 N          65.3901   90.4045   13.7530 N.ar    1  UNL1       -0.3229
      4 C          65.2716   91.2927   12.5501 C.ar    1  UNL1        0.0602
      5 C          66.2327   92.2510   11.9114 C.ar    1  UNL1        0.0172
      6 C          65.8257   93.0179   10.6882 C.ar    1  UNL1        0.0015
      7 C          64.4575   92.8265   10.1037 C.ar    1  UNL1        0.0001
      8 C          63.4964   91.8682   10.7424 C.ar    1  UNL1        0.0015
      9 C          63.9035   91.1013   11.9656 C.ar    1  UNL1        0.0186
     10 C          60.9237   86.6538    9.2952 C.ar    1  UNL1        0.1739
     11 C          59.8080   87.1477   10.1676 C.ar    1  UNL1        0.0592
     12 C          60.0922   88.1315   11.2638 C.ar    1  UNL1        0.0877
     13 N          58.9764   88.6253   12.1361 N.ar    1  UNL1       -0.2238
     14 C          59.2607   89.6090   13.2322 C.ar    1  UNL1        0.1988
     15 N          60.6607   90.0989   13.4559 N.ar    1  UNL1       -0.2239
     16 C          61.7764   89.6050   12.5836 C.ar    1  UNL1        0.0860
     17 C          61.4922   88.6213   11.4875 C.ar    1  UNL1        0.0387
     18 C          62.6080   88.1273   10.6150 C.ar    1  UNL1        0.0430
     19 C          62.3238   87.1436    9.5189 C.ar    1  UNL1        0.1723
     20 C          59.6392   86.0039    7.1324 C.3     1  UNL1        0.2526
     21 O          60.6395   85.6700    8.1990 O.3     1  UNL1       -0.4683
     22 O          63.4396   86.6497    8.6465 O.3     1  UNL1       -0.4724
     23 C          63.6944   85.1772    8.5166 C.3     1  UNL1        0.2070
     24 C          63.2435   84.2398    9.5973 C.3     1  UNL1        0.0646
     25 C          64.2489   83.4044   10.3331 C.3     1  UNL1        0.0761
     26 N          63.8959   82.8023   11.6607 N.3     1  UNL1       -0.2683
     27 C          64.2932   83.4976   12.9291 C.3     1  UNL1        0.1046
     28 C          63.9401   82.8953   14.2568 C.3     1  UNL1        0.1595
     29 O          63.1898   81.5979   14.3161 O.3     1  UNL1       -0.3508
     30 C          62.7924   80.9026   13.0477 C.3     1  UNL1        0.1595
     31 C          63.1455   81.5048   11.7201 C.3     1  UNL1        0.1046
     32 C          63.7754   88.6682   14.9870 C.ar    1  UNL1        0.0159
     33 C          64.0947   87.2168   14.7837 C.ar    1  UNL1        0.0014
     34 C          63.7748   86.2207   15.8587 C.ar    1  UNL1        0.0000
     35 C          63.1355   86.6761   17.1370 C.ar    1  UNL1        0.0000
     36 C          62.8162   88.1275   17.3403 C.ar    1  UNL1        0.0000
     37 C          63.1361   89.1236   16.2653 C.ar    1  UNL1        0.0014
     38 C          66.5924   90.2787   14.6411 C.3     1  UNL1        0.1332
     39 C          67.3977   91.4952   14.9898 C.ar    1  UNL1        0.0066
     40 C          68.7909   91.6507   14.4561 C.ar    1  UNL1       -0.0019
     41 C          69.5963   92.8671   14.8048 C.ar    1  UNL1       -0.0002
     42 C          69.0085   93.9281   15.6873 C.ar    1  UNL1        0.0005
     43 C          67.6154   93.7727   16.2211 C.ar    1  UNL1        0.0064
     44 C          66.8099   92.5561   15.8724 C.ar    1  UNL1        0.0324
     45 BR         65.4168   92.4006   16.4061 Br      1  UNL1       -0.0493
@<TRIPOS>BOND
     1    20    21    1
     2    21    10    1
     3    10    11   ar
     4    11    12   ar
     5    12    13   ar
     6    13    14   ar
     7    14    15   ar
     8    15    16   ar
     9    16     1    1
    10     1     2   ar
    11     2    32    1
    12    32    33   ar
    13    33    34   ar
    14    34    35   ar
    15    35    36   ar
    16    36    37   ar
    17     2     3   ar
    18     3    38    1
    19    38    39    1
    20    39    40   ar
    21    40    41   ar
    22    41    42   ar
    23    42    43   ar
    24    43    44   ar
    25    44    45    1
    26     3     4   ar
    27     4     5   ar
    28     5     6   ar
    29     6     7   ar
    30     7     8   ar
    31     8     9   ar
    32    16    17   ar
    33    17    18   ar
    34    18    19   ar
    35    19    22    1
    36    22    23    1
    37    23    24    1
    38    24    25    1
    39    25    26    1
    40    26    27    1
    41    27    28    1
    42    28    29    1
    43    29    30    1
    44    30    31    1
    45    19    10   ar
    46    31    26    1
    47    17    12   ar
    48     9     1   ar
    49    37    32   ar
    50    44    39   ar
    51     9     4   ar
@<TRIPOS>MOLECULE
*****
 45 51 0 0 0
SMALL
GASTEIGER

@<TRIPOS>ATOM
      1 C          63.7836   90.3676   13.6503 C.ar    1  UNL1        0.0349
      2 C          64.7950   91.4534   13.4310 C.ar    1  UNL1        0.0616
      3 N          64.5992   91.9966   12.0465 N.ar    1  UNL1       -0.3229
      4 C          63.4667   91.2466   11.4102 C.ar    1  UNL1        0.0602
      5 C          62.8294   91.3502   10.0564 C.ar    1  UNL1        0.0172
      6 C          61.6879   90.4472    9.6937 C.ar    1  UNL1        0.0015
      7 C          61.1838   89.4405   10.6848 C.ar    1  UNL1        0.0001
      8 C          61.8212   89.3368   12.0387 C.ar    1  UNL1        0.0015
      9 C          62.9626   90.2398   12.4014 C.ar    1  UNL1        0.0186
     10 C          63.7628   85.0600   14.6886 C.ar    1  UNL1        0.1739
     11 C          63.5536   85.7427   16.0077 C.ar    1  UNL1        0.0592
     12 C          63.5065   87.2404   16.0779 C.ar    1  UNL1        0.0877
     13 N          63.2973   87.9231   17.3970 N.ar    1  UNL1       -0.2238
     14 C          63.2502   89.4207   17.4672 C.ar    1  UNL1        0.1988
     15 N          63.4123   90.2356   16.2183 N.ar    1  UNL1       -0.2239
     16 C          63.6215   89.5528   14.8992 C.ar    1  UNL1        0.0860
     17 C          63.6686   88.0552   14.8290 C.ar    1  UNL1        0.0387
     18 C          63.8778   87.3724   13.5099 C.ar    1  UNL1        0.0430
     19 C          63.9249   85.8748   13.4397 C.ar    1  UNL1        0.1723
     20 C          62.5372   82.7694   14.6548 C.3     1  UNL1        0.2526
     21 O          63.8099   83.5623   14.6184 O.3     1  UNL1       -0.4683
     22 O          64.1341   85.1920   12.1206 O.3     1  UNL1       -0.4724
     23 C          62.9554   84.6870   11.3422 C.3     1  UNL1        0.2070
     24 C          61.9754   85.6569   10.7517 C.3     1  UNL1        0.0646
     25 C          62.2736   86.3189    9.4391 C.3     1  UNL1        0.0761
     26 N          61.8290   85.6782    8.1578 N.3     1  UNL1       -0.2683
     27 C          60.3933   85.7684    7.7329 C.3     1  UNL1        0.1046
     28 C          59.9487   85.1277    6.4515 C.3     1  UNL1        0.1595
     29 O          60.9399   84.3967    5.5951 O.3     1  UNL1       -0.3508
     30 C          62.3756   84.3065    6.0201 C.3     1  UNL1        0.1595
     31 C          62.8201   84.9472    7.3014 C.3     1  UNL1        0.1046
     32 C          65.8221   91.9149   14.4220 C.ar    1  UNL1        0.0159
     33 C          67.2805   91.8445   14.0787 C.ar    1  UNL1        0.0014
     34 C          68.3075   92.3060   15.0698 C.ar    1  UNL1        0.0000
     35 C          67.8760   92.8380   16.4043 C.ar    1  UNL1        0.0000
     36 C          66.4176   92.9084   16.7477 C.ar    1  UNL1        0.0000
     37 C          65.3906   92.4468   15.7566 C.ar    1  UNL1        0.0014
     38 C          65.3961   93.0966   11.4102 C.3     1  UNL1        0.1332
     39 C          66.5384   92.7635   10.4970 C.ar    1  UNL1        0.0066
     40 C          67.1391   91.3891   10.5178 C.ar    1  UNL1       -0.0019
     41 C          68.2814   91.0560    9.6046 C.ar    1  UNL1       -0.0002
     42 C          68.8232   92.0973    8.6706 C.ar    1  UNL1        0.0005
     43 C          68.2227   93.4715    8.6498 C.ar    1  UNL1        0.0064
     44 C          67.0802   93.8047    9.5630 C.ar    1  UNL1        0.0324
     45 BR         66.4796   95.1790    9.5423 Br      1  UNL1       -0.0493
@<TRIPOS>BOND
     1    20    21    1
     2    21    10    1
     3    10    11   ar
     4    11    12   ar
     5    12    13   ar
     6    13    14   ar
     7    14    15   ar
     8    15    16   ar
     9    16     1    1
    10     1     2   ar
    11     2    32    1
    12    32    33   ar
    13    33    34   ar
    14    34    35   ar
    15    35    36   ar
    16    36    37   ar
    17     2     3   ar
    18     3    38    1
    19    38    39    1
    20    39    40   ar
    21    40    41   ar
    22    41    42   ar
    23    42    43   ar
    24    43    44   ar
    25    44    45    1
    26     3     4   ar
    27     4     5   ar
    28     5     6   ar
    29     6     7   ar
    30     7     8   ar
    31     8     9   ar
    32    16    17   ar
    33    17    18   ar
    34    18    19   ar
    35    19    22    1
    36    22    23    1
    37    23    24    1
    38    24    25    1
    39    25    26    1
    40    26    27    1
    41    27    28    1
    42    28    29    1
    43    29    30    1
    44    30    31    1
    45    19    10   ar
    46    31    26    1
    47    17    12   ar
    48     9     1   ar
    49    37    32   ar
    50    44    39   ar
    51     9     4   ar
