@<TRIPOS>MOLECULE
*****
 23 25 0 0 0
SMALL
GASTEIGER

@<TRIPOS>ATOM
      1 C          62.7489   82.9659   13.9987 C.3     1  UNL1        0.1154
      2 C          63.8034   81.3954   13.3270 C.3     1  UNL1        0.0335
      3 C          63.3183   82.6425   12.6493 C.3     1  UNL1        0.1377
      4 C          62.7142   83.9572   12.2536 C.3     1  UNL1        0.0613
      5 C          63.0116   84.1856   10.8011 C.3     1  UNL1        0.1290
      6 C          63.3839   84.2760    9.3509 C.3     1  UNL1        0.0305
      7 C          62.9667   85.4686    8.5425 C.3     1  UNL1        0.0025
      8 C          62.1771   86.5707    9.1842 C.3     1  UNL1        0.0002
      9 C          61.8048   86.4803   10.6344 C.3     1  UNL1        0.0025
     10 C          62.2221   85.2878   11.4429 C.3     1  UNL1        0.0305
     11 O          63.7996   83.0121   10.2992 O.3     1  UNL1       -0.2256
     12 O          63.9892   82.0583   11.4414 O.3     1  UNL1       -0.2251
     13 C          63.4207   83.9842   14.8717 C.2     1  UNL1        0.2252
     14 O          64.9111   84.1463   14.8245 O.2     1  UNL1       -0.2750
     15 N          62.6018   84.8403   15.7918 N.am    1  UNL1       -0.2991
     16 H          61.6236   84.7339   15.8228 H       1  UNL1        0.1498
     17 C          63.2735   85.8586   16.6647 C.3     1  UNL1        0.1358
     18 C          63.4758   87.2583   16.1650 C.ar    1  UNL1        0.0788
     19 C          63.0498   88.4243   17.0072 C.ar    1  UNL1        0.0165
     20 C          63.2521   89.8240   16.5075 C.ar    1  UNL1        0.0029
     21 C          63.8803   90.0579   15.1656 C.ar    1  UNL1        0.0207
     22 C          64.3062   88.8921   14.3235 C.ar    1  UNL1        0.0985
     23 N          64.1040   87.4922   14.8231 N.ar    1  UNL1       -0.2464
@<TRIPOS>BOND
     1     2     3    1
     2     3     1    1
     3     1    13    1
     4    13    14    2
     5    13    15   am
     6    15    17    1
     7    17    18    1
     8    18    19   ar
     9    19    20   ar
    10    20    21   ar
    11    21    22   ar
    12    22    23   ar
    13     3     4    1
    14     4     5    1
    15     5     6    1
    16     6     7    1
    17     7     8    1
    18     8     9    1
    19     9    10    1
    20     5    11    1
    21    11    12    1
    22    12     3    1
    23    23    18   ar
    24    10     5    1
    25    15    16    1
@<TRIPOS>MOLECULE
*****
 23 25 0 0 0
SMALL
GASTEIGER

@<TRIPOS>ATOM
      1 C          64.5801   86.3866   14.6198 C.3     1  UNL1        0.1154
      2 C          63.6358   85.9222   16.3293 C.3     1  UNL1        0.0335
      3 C          63.7583   85.1979   15.0214 C.3     1  UNL1        0.1377
      4 C          64.0525   84.7221   13.6297 C.3     1  UNL1        0.0613
      5 C          63.3869   83.3906   13.4445 C.3     1  UNL1        0.1290
      6 C          62.6699   82.0736   13.4070 C.3     1  UNL1        0.0305
      7 C          62.7040   81.2363   12.1629 C.3     1  UNL1        0.0025
      8 C          63.4550   81.7161   10.9563 C.3     1  UNL1        0.0002
      9 C          64.1719   83.0331   10.9938 C.3     1  UNL1        0.0025
     10 C          64.1379   83.8703   12.2379 C.3     1  UNL1        0.0305
     11 O          62.6812   83.0436   14.7218 O.3     1  UNL1       -0.2256
     12 O          62.9107   84.1605   15.6965 O.3     1  UNL1       -0.2251
     13 C          63.9127   87.5988   14.0409 C.2     1  UNL1        0.2252
     14 O          63.2659   87.5254   12.6896 O.2     1  UNL1       -0.2750
     15 N          63.8920   88.8845   14.8135 N.am    1  UNL1       -0.2991
     16 H          64.3165   88.9326   15.7005 H       1  UNL1        0.1498
     17 C          63.2246   90.0966   14.2346 C.3     1  UNL1        0.1358
     18 C          63.9703   90.9779   13.2770 C.ar    1  UNL1        0.0788
     19 C          63.6381   90.9464   11.8145 C.ar    1  UNL1        0.0165
     20 C          64.3839   91.8277   10.8569 C.ar    1  UNL1        0.0029
     21 C          65.4618   92.7406   11.3616 C.ar    1  UNL1        0.0207
     22 C          65.7939   92.7721   12.8239 C.ar    1  UNL1        0.0985
     23 N          65.0482   91.8908   13.7817 N.ar    1  UNL1       -0.2464
@<TRIPOS>BOND
     1     2     3    1
     2     3     1    1
     3     1    13    1
     4    13    14    2
     5    13    15   am
     6    15    17    1
     7    17    18    1
     8    18    19   ar
     9    19    20   ar
    10    20    21   ar
    11    21    22   ar
    12    22    23   ar
    13     3     4    1
    14     4     5    1
    15     5     6    1
    16     6     7    1
    17     7     8    1
    18     8     9    1
    19     9    10    1
    20     5    11    1
    21    11    12    1
    22    12     3    1
    23    23    18   ar
    24    10     5    1
    25    15    16    1
@<TRIPOS>MOLECULE
*****
 23 25 0 0 0
SMALL
GASTEIGER

@<TRIPOS>ATOM
      1 C          60.1595   87.6855   10.5533 C.3     1  UNL1        0.1154
      2 C          60.2111   87.7626    8.5481 C.3     1  UNL1        0.0335
      3 C          60.9499   86.9131    9.5392 C.3     1  UNL1        0.1377
      4 C          61.5236   86.2250   10.7424 C.3     1  UNL1        0.0613
      5 C          62.5142   85.2049   10.2646 C.3     1  UNL1        0.1290
      6 C          63.4699   84.2314    9.6411 C.3     1  UNL1        0.0305
      7 C          64.2797   83.3147   10.5093 C.3     1  UNL1        0.0025
      8 C          64.1338   83.3715   12.0011 C.3     1  UNL1        0.0002
      9 C          63.1781   84.3450   12.6247 C.3     1  UNL1        0.0025
     10 C          62.3683   85.2617   11.7564 C.3     1  UNL1        0.0305
     11 O          62.5527   85.2625    8.7662 O.3     1  UNL1       -0.2256
     12 O          61.5860   86.3182    8.3178 O.3     1  UNL1       -0.2251
     13 C          60.7295   88.9361   11.1543 C.2     1  UNL1        0.2252
     14 O          60.0623   89.5709   12.3382 O.2     1  UNL1       -0.2750
     15 N          61.9668   89.5520   10.5712 N.am    1  UNL1       -0.2991
     16 H          62.4048   89.1353    9.7941 H       1  UNL1        0.1498
     17 C          62.5367   90.8025   11.1721 C.3     1  UNL1        0.1358
     18 C          63.4907   90.7128   12.3262 C.ar    1  UNL1        0.0788
     19 C          63.5476   89.4651   13.1569 C.ar    1  UNL1        0.0165
     20 C          64.5016   89.3753   14.3110 C.ar    1  UNL1        0.0029
     21 C          65.3987   90.5332   14.6342 C.ar    1  UNL1        0.0207
     22 C          65.3419   91.7807   13.8036 C.ar    1  UNL1        0.0985
     23 N          64.3879   91.8706   12.6495 N.ar    1  UNL1       -0.2464
@<TRIPOS>BOND
     1     2     3    1
     2     3     1    1
     3     1    13    1
     4    13    14    2
     5    13    15   am
     6    15    17    1
     7    17    18    1
     8    18    19   ar
     9    19    20   ar
    10    20    21   ar
    11    21    22   ar
    12    22    23   ar
    13     3     4    1
    14     4     5    1
    15     5     6    1
    16     6     7    1
    17     7     8    1
    18     8     9    1
    19     9    10    1
    20     5    11    1
    21    11    12    1
    22    12     3    1
    23    23    18   ar
    24    10     5    1
    25    15    16    1
@<TRIPOS>MOLECULE
*****
 23 25 0 0 0
SMALL
GASTEIGER

@<TRIPOS>ATOM
      1 C          61.1816   87.8871   10.9311 C.3     1  UNL1        0.1154
      2 C          60.8511   89.1550    9.4102 C.3     1  UNL1        0.0335
      3 C          61.7541   89.2347   10.6054 C.3     1  UNL1        0.1377
      4 C          62.5374   89.0328   11.8686 C.3     1  UNL1        0.0613
      5 C          63.4052   90.2390   12.0737 C.3     1  UNL1        0.1290
      6 C          64.2117   91.5016   12.1458 C.3     1  UNL1        0.0305
      7 C          65.1599   91.7217   13.2870 C.3     1  UNL1        0.0025
      8 C          65.3017   90.6791   14.3561 C.3     1  UNL1        0.0002
      9 C          64.4953   89.4165   14.2840 C.3     1  UNL1        0.0025
     10 C          63.5470   89.1964   13.1428 C.3     1  UNL1        0.0305
     11 O          63.1583   91.1864   10.9373 O.3     1  UNL1       -0.2256
     12 O          62.1378   90.5657   10.0297 O.3     1  UNL1       -0.2251
     13 C          61.9812   86.6472   10.6602 C.2     1  UNL1        0.2252
     14 O          62.4473   86.3449    9.2669 O.2     1  UNL1       -0.2750
     15 N          62.3147   85.7096   11.7827 N.am    1  UNL1       -0.2991
     16 H          62.0087   85.9081   12.6972 H       1  UNL1        0.1498
     17 C          63.1142   84.4698   11.5117 C.3     1  UNL1        0.1358
     18 C          62.8235   83.2091   12.2708 C.ar    1  UNL1        0.0788
     19 C          62.9852   81.8765   11.6016 C.ar    1  UNL1        0.0165
     20 C          62.6945   80.6158   12.3606 C.ar    1  UNL1        0.0029
     21 C          62.2422   80.6878   13.7890 C.ar    1  UNL1        0.0207
     22 C          62.0805   82.0204   14.4582 C.ar    1  UNL1        0.0985
     23 N          62.3712   83.2811   13.6991 N.ar    1  UNL1       -0.2464
@<TRIPOS>BOND
     1     2     3    1
     2     3     1    1
     3     1    13    1
     4    13    14    2
     5    13    15   am
     6    15    17    1
     7    17    18    1
     8    18    19   ar
     9    19    20   ar
    10    20    21   ar
    11    21    22   ar
    12    22    23   ar
    13     3     4    1
    14     4     5    1
    15     5     6    1
    16     6     7    1
    17     7     8    1
    18     8     9    1
    19     9    10    1
    20     5    11    1
    21    11    12    1
    22    12     3    1
    23    23    18   ar
    24    10     5    1
    25    15    16    1
@<TRIPOS>MOLECULE
*****
 23 25 0 0 0
SMALL
GASTEIGER

@<TRIPOS>ATOM
      1 C          62.7012   88.6419   11.5460 C.3     1  UNL1        0.1154
      2 C          60.9022   89.4820   11.8417 C.3     1  UNL1        0.0335
      3 C          61.3796   88.4503   10.8631 C.3     1  UNL1        0.1377
      4 C          62.1333   87.4586   10.0273 C.3     1  UNL1        0.0613
      5 C          61.1776   86.8698    9.0322 C.3     1  UNL1        0.1290
      6 C          60.1119   86.3732    8.1008 C.3     1  UNL1        0.0305
      7 C          60.4425   85.3383    7.0666 C.3     1  UNL1        0.0025
      8 C          61.8388   84.8001    6.9637 C.3     1  UNL1        0.0002
      9 C          62.9045   85.2966    7.8952 C.3     1  UNL1        0.0025
     10 C          62.5739   86.3315    8.9294 C.3     1  UNL1        0.0305
     11 O          59.8333   87.4975    9.2531 O.3     1  UNL1       -0.2256
     12 O          59.9581   88.4744   10.3847 O.3     1  UNL1       -0.2251
     13 C          63.1706   87.6455   12.5644 C.2     1  UNL1        0.2252
     14 O          63.9758   88.1020   13.7447 O.2     1  UNL1       -0.2750
     15 N          62.8346   86.1925   12.4024 N.am    1  UNL1       -0.2991
     16 H          62.3061   85.8929   11.6277 H       1  UNL1        0.1498
     17 C          63.3039   85.1962   13.4207 C.3     1  UNL1        0.1358
     18 C          63.0326   83.7346   13.2205 C.ar    1  UNL1        0.0788
     19 C          63.2293   83.1135   11.8694 C.ar    1  UNL1        0.0165
     20 C          62.9580   81.6519   11.6692 C.ar    1  UNL1        0.0029
     21 C          62.4899   80.8114   12.8200 C.ar    1  UNL1        0.0207
     22 C          62.2932   81.4325   14.1711 C.ar    1  UNL1        0.0985
     23 N          62.5645   82.8942   14.3714 N.ar    1  UNL1       -0.2464
@<TRIPOS>BOND
     1     2     3    1
     2     3     1    1
     3     1    13    1
     4    13    14    2
     5    13    15   am
     6    15    17    1
     7    17    18    1
     8    18    19   ar
     9    19    20   ar
    10    20    21   ar
    11    21    22   ar
    12    22    23   ar
    13     3     4    1
    14     4     5    1
    15     5     6    1
    16     6     7    1
    17     7     8    1
    18     8     9    1
    19     9    10    1
    20     5    11    1
    21    11    12    1
    22    12     3    1
    23    23    18   ar
    24    10     5    1
    25    15    16    1
@<TRIPOS>MOLECULE
*****
 23 25 0 0 0
SMALL
GASTEIGER

@<TRIPOS>ATOM
      1 C          64.7442   88.9116   14.5215 C.3     1  UNL1        0.1154
      2 C          64.6518   90.8891   14.8542 C.3     1  UNL1        0.0335
      3 C          64.0322   90.0183   13.8017 C.3     1  UNL1        0.1377
      4 C          63.5614   88.9161   12.8997 C.3     1  UNL1        0.0613
      5 C          62.6879   89.5237   11.8423 C.3     1  UNL1        0.1290
      6 C          61.8413   90.2697   10.8541 C.3     1  UNL1        0.0305
      7 C          61.1570   89.5295    9.7433 C.3     1  UNL1        0.0025
      8 C          61.3194   88.0434    9.6207 C.3     1  UNL1        0.0002
      9 C          62.1660   87.2974   10.6090 C.3     1  UNL1        0.0025
     10 C          62.8502   88.0375   11.7198 C.3     1  UNL1        0.0305
     11 O          62.6188   91.0014   12.0909 O.3     1  UNL1       -0.2256
     12 O          63.4496   91.3071   13.3019 O.3     1  UNL1       -0.2251
     13 C          63.9609   87.7827   15.1234 C.2     1  UNL1        0.2252
     14 O          62.9607   88.0577   16.2067 O.2     1  UNL1       -0.2750
     15 N          64.1781   86.3787   14.6418 N.am    1  UNL1       -0.2991
     16 H          64.8346   86.1982   13.9307 H       1  UNL1        0.1498
     17 C          63.3949   85.2499   15.2436 C.3     1  UNL1        0.1358
     18 C          63.0217   84.0645   14.4037 C.ar    1  UNL1        0.0788
     19 C          63.0932   84.1527   12.9080 C.ar    1  UNL1        0.0165
     20 C          62.7200   82.9673   12.0680 C.ar    1  UNL1        0.0029
     21 C          62.2752   81.6937   12.7238 C.ar    1  UNL1        0.0207
     22 C          62.2037   81.6054   14.2194 C.ar    1  UNL1        0.0985
     23 N          62.5769   82.7908   15.0594 N.ar    1  UNL1       -0.2464
@<TRIPOS>BOND
     1     2     3    1
     2     3     1    1
     3     1    13    1
     4    13    14    2
     5    13    15   am
     6    15    17    1
     7    17    18    1
     8    18    19   ar
     9    19    20   ar
    10    20    21   ar
    11    21    22   ar
    12    22    23   ar
    13     3     4    1
    14     4     5    1
    15     5     6    1
    16     6     7    1
    17     7     8    1
    18     8     9    1
    19     9    10    1
    20     5    11    1
    21    11    12    1
    22    12     3    1
    23    23    18   ar
    24    10     5    1
    25    15    16    1
@<TRIPOS>MOLECULE
*****
 23 25 0 0 0
SMALL
GASTEIGER

@<TRIPOS>ATOM
      1 C          64.0170   89.4434   13.6928 C.3     1  UNL1        0.1154
      2 C          62.6503   89.9279   15.0809 C.3     1  UNL1        0.0335
      3 C          64.0411   90.4277   14.8244 C.3     1  UNL1        0.1377
      4 C          65.4269   90.7217   14.3313 C.3     1  UNL1        0.0613
      5 C          66.0168   91.7833   15.2118 C.3     1  UNL1        0.1290
      6 C          66.4711   92.8427   16.1715 C.3     1  UNL1        0.0305
      7 C          67.8415   93.4377   16.0381 C.3     1  UNL1        0.0025
      8 C          68.7577   92.9732   14.9450 C.3     1  UNL1        0.0002
      9 C          68.3034   91.9138   13.9853 C.3     1  UNL1        0.0025
     10 C          66.9329   91.3188   14.1187 C.3     1  UNL1        0.0305
     11 O          64.9955   92.1453   16.2491 O.3     1  UNL1       -0.2256
     12 O          63.7744   91.3075   16.0096 O.3     1  UNL1       -0.2251
     13 C          63.2710   89.7678   12.4324 C.2     1  UNL1        0.2252
     14 O          63.5639   91.0399   11.6938 O.2     1  UNL1       -0.2750
     15 N          62.2320   88.8198   11.9108 N.am    1  UNL1       -0.2991
     16 H          62.0398   87.9847   12.3957 H       1  UNL1        0.1498
     17 C          61.4861   89.1441   10.6506 C.3     1  UNL1        0.1358
     18 C          61.1636   88.0567    9.6690 C.ar    1  UNL1        0.0788
     19 C          62.1507   86.9553    9.4186 C.ar    1  UNL1        0.0165
     20 C          61.8282   85.8679    8.4370 C.ar    1  UNL1        0.0029
     21 C          60.5185   85.8818    7.7059 C.ar    1  UNL1        0.0207
     22 C          59.5315   86.9831    7.9562 C.ar    1  UNL1        0.0985
     23 N          59.8539   88.0706    8.9378 N.ar    1  UNL1       -0.2464
@<TRIPOS>BOND
     1     2     3    1
     2     3     1    1
     3     1    13    1
     4    13    14    2
     5    13    15   am
     6    15    17    1
     7    17    18    1
     8    18    19   ar
     9    19    20   ar
    10    20    21   ar
    11    21    22   ar
    12    22    23   ar
    13     3     4    1
    14     4     5    1
    15     5     6    1
    16     6     7    1
    17     7     8    1
    18     8     9    1
    19     9    10    1
    20     5    11    1
    21    11    12    1
    22    12     3    1
    23    23    18   ar
    24    10     5    1
    25    15    16    1
@<TRIPOS>MOLECULE
*****
 23 25 0 0 0
SMALL
GASTEIGER

@<TRIPOS>ATOM
      1 C          64.6577   83.0384   12.6151 C.3     1  UNL1        0.1154
      2 C          63.5496   81.4878   13.2454 C.3     1  UNL1        0.0335
      3 C          63.7108   82.8845   13.7681 C.3     1  UNL1        0.1377
      4 C          64.0699   84.3134   14.0497 C.3     1  UNL1        0.0613
      5 C          63.3112   84.7506   15.2677 C.3     1  UNL1        0.1290
      6 C          62.4914   85.0432   16.4892 C.3     1  UNL1        0.0305
      7 C          62.5504   86.4008   17.1245 C.3     1  UNL1        0.0025
      8 C          63.4291   87.4657   16.5382 C.3     1  UNL1        0.0002
      9 C          64.2489   87.1731   15.3166 C.3     1  UNL1        0.0025
     10 C          64.1899   85.8156   14.6813 C.3     1  UNL1        0.0305
     11 O          62.4832   83.5920   15.7387 O.3     1  UNL1       -0.2256
     12 O          62.7301   82.4386   14.8119 O.3     1  UNL1       -0.2251
     13 C          64.1315   83.3836   11.2534 C.2     1  UNL1        0.2252
     14 O          64.5343   82.5637   10.0637 O.2     1  UNL1       -0.2750
     15 N          63.2024   84.5487   11.0815 N.am    1  UNL1       -0.2991
     16 H          62.9380   85.0868   11.8624 H       1  UNL1        0.1498
     17 C          62.6762   84.8938    9.7199 C.3     1  UNL1        0.1358
     18 C          61.8697   86.1429    9.5220 C.ar    1  UNL1        0.0788
     19 C          60.7445   86.1599    8.5301 C.ar    1  UNL1        0.0165
     20 C          59.9380   87.4090    8.3322 C.ar    1  UNL1        0.0029
     21 C          60.2566   88.6411    9.1261 C.ar    1  UNL1        0.0207
     22 C          61.3817   88.6242   10.1178 C.ar    1  UNL1        0.0985
     23 N          62.1883   87.3750   10.3158 N.ar    1  UNL1       -0.2464
@<TRIPOS>BOND
     1     2     3    1
     2     3     1    1
     3     1    13    1
     4    13    14    2
     5    13    15   am
     6    15    17    1
     7    17    18    1
     8    18    19   ar
     9    19    20   ar
    10    20    21   ar
    11    21    22   ar
    12    22    23   ar
    13     3     4    1
    14     4     5    1
    15     5     6    1
    16     6     7    1
    17     7     8    1
    18     8     9    1
    19     9    10    1
    20     5    11    1
    21    11    12    1
    22    12     3    1
    23    23    18   ar
    24    10     5    1
    25    15    16    1
@<TRIPOS>MOLECULE
*****
 23 25 0 0 0
SMALL
GASTEIGER

@<TRIPOS>ATOM
      1 C          61.4740   89.7518   11.9003 C.3     1  UNL1        0.1154
      2 C          61.4079   90.4364   10.0145 C.3     1  UNL1        0.0335
      3 C          62.4106   90.6208   11.1147 C.3     1  UNL1        0.1377
      4 C          63.2176   90.6236   12.3791 C.3     1  UNL1        0.0613
      5 C          64.4434   91.4559   12.1450 C.3     1  UNL1        0.1290
      6 C          65.6154   92.3115   11.7652 C.3     1  UNL1        0.0305
      7 C          66.7000   92.5842   12.7647 C.3     1  UNL1        0.0025
      8 C          66.6127   92.0013   14.1440 C.3     1  UNL1        0.0002
      9 C          65.4407   91.1457   14.5239 C.3     1  UNL1        0.0025
     10 C          64.3561   90.8730   13.5243 C.3     1  UNL1        0.0305
     11 O          64.3940   91.9675   10.7358 O.3     1  UNL1       -0.2256
     12 O          63.1377   91.4514   10.0990 O.3     1  UNL1       -0.2251
     13 C          61.1114   88.3880   11.3914 C.2     1  UNL1        0.2252
     14 O          59.7061   88.1001   10.9535 O.2     1  UNL1       -0.2750
     15 N          62.1544   87.3123   11.3204 N.am    1  UNL1       -0.2991
     16 H          63.0769   87.5012   11.6079 H       1  UNL1        0.1498
     17 C          61.7919   85.9486   10.8115 C.3     1  UNL1        0.1358
     18 C          62.6702   84.7735   11.1239 C.ar    1  UNL1        0.0788
     19 C          63.4155   84.0803   10.0221 C.ar    1  UNL1        0.0165
     20 C          64.2939   82.9052   10.3345 C.ar    1  UNL1        0.0029
     21 C          64.4270   82.4233   11.7487 C.ar    1  UNL1        0.0207
     22 C          63.6817   83.1165   12.8505 C.ar    1  UNL1        0.0985
     23 N          62.8033   84.2916   12.5382 N.ar    1  UNL1       -0.2464
@<TRIPOS>BOND
     1     2     3    1
     2     3     1    1
     3     1    13    1
     4    13    14    2
     5    13    15   am
     6    15    17    1
     7    17    18    1
     8    18    19   ar
     9    19    20   ar
    10    20    21   ar
    11    21    22   ar
    12    22    23   ar
    13     3     4    1
    14     4     5    1
    15     5     6    1
    16     6     7    1
    17     7     8    1
    18     8     9    1
    19     9    10    1
    20     5    11    1
    21    11    12    1
    22    12     3    1
    23    23    18   ar
    24    10     5    1
    25    15    16    1
