@<TRIPOS>MOLECULE
*****
 31 33 0 0 0
SMALL
GASTEIGER

@<TRIPOS>ATOM
      1 O          63.5830   90.7151   15.6833 O.3     1  UNL1       -0.4352
      2 C          64.5561   91.5057   14.8598 C.ar    1  UNL1        0.1582
      3 C          65.7155   92.1902   15.5209 C.ar    1  UNL1        0.0400
      4 C          66.6887   92.9808   14.6974 C.ar    1  UNL1        0.0228
      5 C          66.5023   93.0866   13.2128 C.ar    1  UNL1        0.0886
      6 N          67.2927   93.7904   12.1497 N.ar    1  UNL1       -0.2404
      7 C          66.6217   93.5406   10.8316 C.ar    1  UNL1        0.1123
      8 S          65.4167   92.6826   11.0800 S.2     1  UNL1       -0.0676
      9 C          65.3429   92.4020   12.5517 C.ar    1  UNL1        0.0618
     10 C          64.3698   91.6115   13.3752 C.ar    1  UNL1        0.0996
     11 CL         63.2104   90.9269   12.7141 Cl      1  UNL1       -0.0785
     12 C          67.0759   94.0581    9.4990 C.3     1  UNL1        0.1289
     13 C          67.9250   92.8356    9.3137 C.3     1  UNL1        0.0360
     14 C          66.2268   95.2807    9.6843 C.3     1  UNL1        0.0360
     15 O          67.5302   94.5756    8.1664 O.3     1  UNL1       -0.3807
     16 H          68.1458   93.9418    7.7661 H       1  UNL1        0.2108
     17 C          63.7548   86.2184   15.6680 C.ar    1  UNL1        0.0191
     18 C          64.4167   86.9980   14.5706 C.ar    1  UNL1        0.0063
     19 C          64.3594   88.4969   14.5758 C.ar    1  UNL1        0.0581
     20 C          63.6403   89.2163   15.6782 C.ar    1  UNL1        0.2297
     21 N          62.9783   88.4367   16.7755 N.ar    1  UNL1       -0.2098
     22 C          63.0356   86.9377   16.7704 C.ar    1  UNL1        0.1020
     23 C          63.4049   83.9576   14.4366 C.2     1  UNL1       -0.0069
     24 C          63.8121   84.7195   15.6629 C.2     1  UNL1       -0.0014
     25 C          63.4622   82.4588   14.4314 C.3     1  UNL1        0.0939
     26 C          64.7205   81.7578   14.0125 C.3     1  UNL1        0.0262
     27 C          60.1637   80.2625   14.2169 C.3     1  UNL1        0.0946
     28 C          61.3646   81.0604   13.8032 C.2     1  UNL1        0.2232
     29 O          61.6688   81.2578   12.3477 O.2     1  UNL1       -0.2751
     30 N          62.2613   81.6609   14.8451 N.am    1  UNL1       -0.3022
     31 H          62.0616   81.5313   15.8004 H       1  UNL1        0.1497
@<TRIPOS>BOND
     1    27    28    1
     2    28    29    2
     3    28    30   am
     4    30    25    1
     5    25    26    1
     6    25    23    1
     7    23    24    2
     8    24    17    1
     9    17    18   ar
    10    18    19   ar
    11    19    20   ar
    12    20     1    1
    13     1     2    1
    14     2     3   ar
    15     3     4   ar
    16     4     5   ar
    17     5     6   ar
    18     6     7   ar
    19     7    12    1
    20    12    13    1
    21    12    14    1
    22    12    15    1
    23     7     8   ar
    24     8     9   ar
    25     9    10   ar
    26    10    11    1
    27    20    21   ar
    28    21    22   ar
    29    22    17   ar
    30    10     2   ar
    31     9     5   ar
    32    30    31    1
    33    15    16    1
@<TRIPOS>MOLECULE
*****
 31 33 0 0 0
SMALL
GASTEIGER

@<TRIPOS>ATOM
      1 O          63.5012   90.2549   14.3477 O.3     1  UNL1       -0.4352
      2 C          64.4972   91.2276   13.7890 C.ar    1  UNL1        0.1582
      3 C          65.6149   91.7348   14.6510 C.ar    1  UNL1        0.0400
      4 C          66.6109   92.7075   14.0923 C.ar    1  UNL1        0.0228
      5 C          66.4889   93.1729   12.6716 C.ar    1  UNL1        0.0886
      6 N          67.3142   94.1193   11.8511 N.ar    1  UNL1       -0.2404
      7 C          66.7064   94.1970   10.4820 C.ar    1  UNL1        0.1123
      8 S          65.5055   93.2986   10.4563 S.2     1  UNL1       -0.0676
      9 C          65.3710   92.6657   11.8096 C.ar    1  UNL1        0.0618
     10 C          64.3752   91.6930   12.3683 C.ar    1  UNL1        0.0996
     11 CL         63.2573   91.1858   11.5062 Cl      1  UNL1       -0.0785
     12 C          67.2110   95.0273    9.3392 C.3     1  UNL1        0.1289
     13 C          68.0641   93.8809    8.8830 C.3     1  UNL1        0.0360
     14 C          66.3578   96.1736    9.7954 C.3     1  UNL1        0.0360
     15 O          67.7155   95.8575    8.1963 O.3     1  UNL1       -0.3807
     16 H          68.3444   95.3376    7.6719 H       1  UNL1        0.2108
     17 C          63.7651   85.8945   13.2670 C.ar    1  UNL1        0.0191
     18 C          64.3387   86.3817   14.5646 C.ar    1  UNL1        0.0063
     19 C          64.2507   87.8351   14.9248 C.ar    1  UNL1        0.0581
     20 C          63.5892   88.8015   13.9875 C.ar    1  UNL1        0.2297
     21 N          63.0156   88.3143   12.6899 N.ar    1  UNL1       -0.2098
     22 C          63.1036   86.8608   12.3297 C.ar    1  UNL1        0.1020
     23 C          63.0491   83.9024   11.7608 C.2     1  UNL1       -0.0069
     24 C          63.8531   84.4411   12.9068 C.2     1  UNL1       -0.0014
     25 C          63.1371   82.4490   11.4006 C.3     1  UNL1        0.0939
     26 C          64.1571   81.9838   10.4039 C.3     1  UNL1        0.0262
     27 C          61.5874   79.9106   14.0284 C.3     1  UNL1        0.0946
     28 C          62.5194   80.8988   13.3919 C.2     1  UNL1        0.2232
     29 O          63.7653   81.3249   14.1102 O.2     1  UNL1       -0.2751
     30 N          62.2052   81.4608   12.0371 N.am    1  UNL1       -0.3022
     31 H          61.3874   81.1811   11.5656 H       1  UNL1        0.1497
@<TRIPOS>BOND
     1    27    28    1
     2    28    29    2
     3    28    30   am
     4    30    25    1
     5    25    26    1
     6    25    23    1
     7    23    24    2
     8    24    17    1
     9    17    18   ar
    10    18    19   ar
    11    19    20   ar
    12    20     1    1
    13     1     2    1
    14     2     3   ar
    15     3     4   ar
    16     4     5   ar
    17     5     6   ar
    18     6     7   ar
    19     7    12    1
    20    12    13    1
    21    12    14    1
    22    12    15    1
    23     7     8   ar
    24     8     9   ar
    25     9    10   ar
    26    10    11    1
    27    20    21   ar
    28    21    22   ar
    29    22    17   ar
    30    10     2   ar
    31     9     5   ar
    32    30    31    1
    33    15    16    1
@<TRIPOS>MOLECULE
*****
 31 33 0 0 0
SMALL
GASTEIGER

@<TRIPOS>ATOM
      1 O          62.2927   90.5268   11.0632 O.3     1  UNL1       -0.4352
      2 C          63.5705   91.2073   11.4559 C.ar    1  UNL1        0.1582
      3 C          64.3117   92.0454   10.4568 C.ar    1  UNL1        0.0400
      4 C          65.5895   92.7259   10.8495 C.ar    1  UNL1        0.0228
      5 C          66.1261   92.5682   12.2413 C.ar    1  UNL1        0.0886
      6 N          67.3514   93.1142   12.9124 N.ar    1  UNL1       -0.2404
      7 C          67.3675   92.6136   14.3263 C.ar    1  UNL1        0.1123
      8 S          66.1521   91.7581   14.5290 S.2     1  UNL1       -0.0676
      9 C          65.3849   91.7301   13.2404 C.ar    1  UNL1        0.0618
     10 C          64.1071   91.0496   12.8477 C.ar    1  UNL1        0.0996
     11 CL         63.3659   90.2115   13.8468 Cl      1  UNL1       -0.0785
     12 C          68.4150   92.9154   15.3567 C.3     1  UNL1        0.1289
     13 C          69.4883   92.6549   14.3417 C.3     1  UNL1        0.0360
     14 C          67.3417   93.1759   16.3716 C.3     1  UNL1        0.0360
     15 O          69.4625   93.2172   16.3870 O.3     1  UNL1       -0.3807
     16 H          70.3427   93.1235   15.9903 H       1  UNL1        0.2108
     17 C          62.1403   86.0411   10.7384 C.ar    1  UNL1        0.0191
     18 C          61.6095   86.8923    9.6231 C.ar    1  UNL1        0.0063
     19 C          61.6603   88.3875    9.7314 C.ar    1  UNL1        0.0581
     20 C          62.2419   89.0316   10.9549 C.ar    1  UNL1        0.2297
     21 N          62.7727   88.1804   12.0701 N.ar    1  UNL1       -0.2098
     22 C          62.7219   86.6851   11.9618 C.ar    1  UNL1        0.1020
     23 C          63.0224   83.7026   11.4478 C.2     1  UNL1       -0.0069
     24 C          62.0895   84.5459   10.6301 C.2     1  UNL1       -0.0014
     25 C          62.9716   82.2074   11.3395 C.3     1  UNL1        0.0939
     26 C          63.9753   81.4823   10.4927 C.3     1  UNL1        0.0262
     27 C          60.9928   80.4456   14.2942 C.3     1  UNL1        0.0946
     28 C          62.0472   81.2157   13.5558 C.2     1  UNL1        0.2232
     29 O          63.2315   81.7641   14.2952 O.2     1  UNL1       -0.2751
     30 N          61.9172   81.4373   12.0779 N.am    1  UNL1       -0.3022
     31 H          61.1399   81.0774   11.5926 H       1  UNL1        0.1497
@<TRIPOS>BOND
     1    27    28    1
     2    28    29    2
     3    28    30   am
     4    30    25    1
     5    25    26    1
     6    25    23    1
     7    23    24    2
     8    24    17    1
     9    17    18   ar
    10    18    19   ar
    11    19    20   ar
    12    20     1    1
    13     1     2    1
    14     2     3   ar
    15     3     4   ar
    16     4     5   ar
    17     5     6   ar
    18     6     7   ar
    19     7    12    1
    20    12    13    1
    21    12    14    1
    22    12    15    1
    23     7     8   ar
    24     8     9   ar
    25     9    10   ar
    26    10    11    1
    27    20    21   ar
    28    21    22   ar
    29    22    17   ar
    30    10     2   ar
    31     9     5   ar
    32    30    31    1
    33    15    16    1
@<TRIPOS>MOLECULE
*****
 31 33 0 0 0
SMALL
GASTEIGER

@<TRIPOS>ATOM
      1 O          58.8219   88.8026    7.0061 O.3     1  UNL1       -0.4352
      2 C          59.7090   88.5663    8.1924 C.ar    1  UNL1        0.1582
      3 C          60.1524   89.7221    9.0394 C.ar    1  UNL1        0.0400
      4 C          61.0395   89.4858   10.2257 C.ar    1  UNL1        0.0228
      5 C          61.4830   88.0937   10.5650 C.ar    1  UNL1        0.0886
      6 N          62.3507   87.5567   11.6645 N.ar    1  UNL1       -0.2404
      7 C          62.4435   86.0690   11.4970 C.ar    1  UNL1        0.1123
      8 S          61.6332   85.6865   10.2940 S.2     1  UNL1       -0.0676
      9 C          61.0396   86.9378    9.7180 C.ar    1  UNL1        0.0618
     10 C          60.1526   87.1742    8.5317 C.ar    1  UNL1        0.0996
     11 CL         59.7091   86.0184    7.6847 Cl      1  UNL1       -0.0785
     12 C          63.2117   85.1287   12.3778 C.3     1  UNL1        0.1289
     13 C          63.5438   86.2641   13.3001 C.3     1  UNL1        0.0360
     14 C          62.8796   83.9934   11.4555 C.3     1  UNL1        0.0360
     15 O          63.9799   84.1885   13.2586 O.3     1  UNL1       -0.3807
     16 H          64.3480   84.6781   14.0108 H       1  UNL1        0.2108
     17 C          59.7248   92.1662    4.1563 C.ar    1  UNL1        0.0191
     18 C          58.3155   91.9261    4.6107 C.ar    1  UNL1        0.0063
     19 C          58.0146   90.8049    5.5606 C.ar    1  UNL1        0.0581
     20 C          59.1228   89.9238    6.0561 C.ar    1  UNL1        0.2297
     21 N          60.5320   90.1639    5.6017 N.ar    1  UNL1       -0.2098
     22 C          60.8330   91.2852    4.6518 C.ar    1  UNL1        0.1020
     23 C          59.7184   93.1360    1.7460 C.2     1  UNL1       -0.0069
     24 C          60.0257   93.2874    3.2064 C.2     1  UNL1       -0.0014
     25 C          60.0193   94.2572    0.7961 C.3     1  UNL1        0.0939
     26 C          59.9052   95.6806    1.2558 C.3     1  UNL1        0.0262
     27 C          62.2900   93.3778   -2.3377 C.3     1  UNL1        0.0946
     28 C          61.8749   93.6799   -0.9282 C.2     1  UNL1        0.2232
     29 O          62.9004   93.7067    0.1662 O.2     1  UNL1       -0.2751
     30 N          60.4344   93.9551   -0.6133 N.am    1  UNL1       -0.3022
     31 H          59.7614   93.9375   -1.3316 H       1  UNL1        0.1497
@<TRIPOS>BOND
     1    27    28    1
     2    28    29    2
     3    28    30   am
     4    30    25    1
     5    25    26    1
     6    25    23    1
     7    23    24    2
     8    24    17    1
     9    17    18   ar
    10    18    19   ar
    11    19    20   ar
    12    20     1    1
    13     1     2    1
    14     2     3   ar
    15     3     4   ar
    16     4     5   ar
    17     5     6   ar
    18     6     7   ar
    19     7    12    1
    20    12    13    1
    21    12    14    1
    22    12    15    1
    23     7     8   ar
    24     8     9   ar
    25     9    10   ar
    26    10    11    1
    27    20    21   ar
    28    21    22   ar
    29    22    17   ar
    30    10     2   ar
    31     9     5   ar
    32    30    31    1
    33    15    16    1
@<TRIPOS>MOLECULE
*****
 31 33 0 0 0
SMALL
GASTEIGER

@<TRIPOS>ATOM
      1 O          64.2690   89.5144   15.3772 O.3     1  UNL1       -0.4352
      2 C          64.3961   90.3528   14.1398 C.ar    1  UNL1        0.1582
      3 C          63.4837   90.1123   12.9739 C.ar    1  UNL1        0.0400
      4 C          63.6109   90.9506   11.7365 C.ar    1  UNL1        0.0228
      5 C          64.6505   92.0295   11.6652 C.ar    1  UNL1        0.0886
      6 N          65.0093   93.0079   10.5863 N.ar    1  UNL1       -0.2404
      7 C          66.1434   93.8532   11.0855 C.ar    1  UNL1        0.1123
      8 S          66.4856   93.3972   12.4730 S.2     1  UNL1       -0.0676
      9 C          65.5630   92.2701   12.8312 C.ar    1  UNL1        0.0618
     10 C          65.4358   91.4317   14.0685 C.ar    1  UNL1        0.0996
     11 CL         66.3482   91.6723   15.2346 Cl      1  UNL1       -0.0785
     12 C          66.8171   94.9601   10.3300 C.3     1  UNL1        0.1289
     13 C          66.0859   95.9724   11.1610 C.3     1  UNL1        0.0360
     14 C          67.5484   93.9479    9.4990 C.3     1  UNL1        0.0360
     15 O          67.4908   96.0671    9.5745 O.3     1  UNL1       -0.3807
     16 H          67.1902   96.9228    9.9183 H       1  UNL1        0.2108
     17 C          63.3335   85.1260   15.0353 C.ar    1  UNL1        0.0191
     18 C          63.9262   85.8596   13.8688 C.ar    1  UNL1        0.0063
     19 C          64.2380   87.3224   13.9828 C.ar    1  UNL1        0.0581
     20 C          63.9572   88.0517   15.2632 C.ar    1  UNL1        0.2297
     21 N          63.3645   87.3180   16.4296 N.ar    1  UNL1       -0.2098
     22 C          63.0527   85.8551   16.3156 C.ar    1  UNL1        0.1020
     23 C          62.5195   83.1023   13.6239 C.2     1  UNL1       -0.0069
     24 C          63.0217   83.6632   14.9213 C.2     1  UNL1       -0.0014
     25 C          62.2077   81.6396   13.5099 C.3     1  UNL1        0.0939
     26 C          61.3395   80.9755   14.5373 C.3     1  UNL1        0.0262
     27 C          63.6460   80.7172    9.9279 C.3     1  UNL1        0.0946
     28 C          63.0897   81.5160   11.0692 C.2     1  UNL1        0.2232
     29 O          62.8590   82.9896   10.9112 O.2     1  UNL1       -0.2751
     30 N          62.7641   80.8408   12.3686 N.am    1  UNL1       -0.3022
     31 H          62.9155   79.8736   12.4723 H       1  UNL1        0.1497
@<TRIPOS>BOND
     1    27    28    1
     2    28    29    2
     3    28    30   am
     4    30    25    1
     5    25    26    1
     6    25    23    1
     7    23    24    2
     8    24    17    1
     9    17    18   ar
    10    18    19   ar
    11    19    20   ar
    12    20     1    1
    13     1     2    1
    14     2     3   ar
    15     3     4   ar
    16     4     5   ar
    17     5     6   ar
    18     6     7   ar
    19     7    12    1
    20    12    13    1
    21    12    14    1
    22    12    15    1
    23     7     8   ar
    24     8     9   ar
    25     9    10   ar
    26    10    11    1
    27    20    21   ar
    28    21    22   ar
    29    22    17   ar
    30    10     2   ar
    31     9     5   ar
    32    30    31    1
    33    15    16    1
@<TRIPOS>MOLECULE
*****
 31 33 0 0 0
SMALL
GASTEIGER

@<TRIPOS>ATOM
      1 O          58.7669   88.7905    7.0891 O.3     1  UNL1       -0.4352
      2 C          59.6733   88.5489    8.2597 C.ar    1  UNL1        0.1582
      3 C          60.1200   89.6991    9.1124 C.ar    1  UNL1        0.0400
      4 C          61.0264   89.4574   10.2830 C.ar    1  UNL1        0.0228
      5 C          61.4860   88.0654   10.6007 C.ar    1  UNL1        0.0886
      6 N          62.3741   87.5238   11.6814 N.ar    1  UNL1       -0.2404
      7 C          62.4763   86.0388   11.4965 C.ar    1  UNL1        0.1123
      8 S          61.6513   85.6626   10.3015 S.2     1  UNL1       -0.0676
      9 C          61.0393   86.9151    9.7479 C.ar    1  UNL1        0.0618
     10 C          60.1329   87.1568    8.5774 C.ar    1  UNL1        0.0996
     11 CL         59.6862   86.0065    7.7246 Cl      1  UNL1       -0.0785
     12 C          63.2649   85.0955   12.3557 C.3     1  UNL1        0.1289
     13 C          62.9882   83.9830   11.3884 C.3     1  UNL1        0.0360
     14 C          63.5417   86.2080   13.3230 C.3     1  UNL1        0.0360
     15 O          64.0536   84.1522   13.2149 O.3     1  UNL1       -0.3807
     16 H          64.0549   83.2706   12.8104 H       1  UNL1        0.2108
     17 C          59.6995   92.0796    4.1629 C.ar    1  UNL1        0.0191
     18 C          60.8038   91.2177    4.6994 C.ar    1  UNL1        0.0063
     19 C          60.4929   90.1214    5.6748 C.ar    1  UNL1        0.0581
     20 C          59.0778   89.8869    6.1137 C.ar    1  UNL1        0.2297
     21 N          57.9736   90.7488    5.5772 N.ar    1  UNL1       -0.2098
     22 C          58.2845   91.8452    4.6017 C.ar    1  UNL1        0.1020
     23 C          61.2391   93.0918    2.3312 C.2     1  UNL1       -0.0069
     24 C          60.0104   93.1759    3.1875 C.2     1  UNL1       -0.0014
     25 C          61.5500   94.1881    1.3559 C.3     1  UNL1        0.0939
     26 C          62.8733   94.8921    1.4156 C.3     1  UNL1        0.0262
     27 C          58.5725   96.0989   -0.4422 C.3     1  UNL1        0.0946
     28 C          59.5848   95.7066    0.5929 C.2     1  UNL1        0.2232
     29 O          59.6441   96.4402    1.8998 O.2     1  UNL1       -0.2751
     30 N          60.5377   94.5805    0.3208 N.am    1  UNL1       -0.3022
     31 H          60.4987   94.0989   -0.5370 H       1  UNL1        0.1497
@<TRIPOS>BOND
     1    27    28    1
     2    28    29    2
     3    28    30   am
     4    30    25    1
     5    25    26    1
     6    25    23    1
     7    23    24    2
     8    24    17    1
     9    17    18   ar
    10    18    19   ar
    11    19    20   ar
    12    20     1    1
    13     1     2    1
    14     2     3   ar
    15     3     4   ar
    16     4     5   ar
    17     5     6   ar
    18     6     7   ar
    19     7    12    1
    20    12    13    1
    21    12    14    1
    22    12    15    1
    23     7     8   ar
    24     8     9   ar
    25     9    10   ar
    26    10    11    1
    27    20    21   ar
    28    21    22   ar
    29    22    17   ar
    30    10     2   ar
    31     9     5   ar
    32    30    31    1
    33    15    16    1
@<TRIPOS>MOLECULE
*****
 31 33 0 0 0
SMALL
GASTEIGER

@<TRIPOS>ATOM
      1 O          59.8264   93.9220    2.8634 O.3     1  UNL1       -0.4352
      2 C          60.2301   93.7082    1.4346 C.ar    1  UNL1        0.1582
      3 C          59.2739   93.0673    0.4730 C.ar    1  UNL1        0.0400
      4 C          59.6776   92.8534   -0.9558 C.ar    1  UNL1        0.0228
      5 C          61.0376   93.2805   -1.4228 C.ar    1  UNL1        0.0886
      6 N          61.7105   93.1995   -2.7610 N.ar    1  UNL1       -0.2404
      7 C          63.0826   93.7904   -2.6263 C.ar    1  UNL1        0.1123
      8 S          63.2577   94.2366   -1.2049 S.2     1  UNL1       -0.0676
      9 C          61.9938   93.9214   -0.4611 C.ar    1  UNL1        0.0618
     10 C          61.5900   94.1353    0.9676 C.ar    1  UNL1        0.0996
     11 CL         62.5462   94.7762    1.9293 Cl      1  UNL1       -0.0785
     12 C          64.1009   93.9135   -3.7208 C.3     1  UNL1        0.1289
     13 C          63.9208   92.4616   -4.0517 C.3     1  UNL1        0.0360
     14 C          64.2810   95.3655   -3.3899 C.3     1  UNL1        0.0360
     15 O          65.1192   94.0367   -4.8153 O.3     1  UNL1       -0.3807
     16 H          65.2288   93.1780   -5.2530 H       1  UNL1        0.2108
     17 C          59.2421   90.3894    5.5891 C.ar    1  UNL1        0.0191
     18 C          60.6129   90.7267    5.0819 C.ar    1  UNL1        0.0063
     19 C          60.8076   91.9042    4.1733 C.ar    1  UNL1        0.0581
     20 C          59.6317   92.7445    3.7720 C.ar    1  UNL1        0.2297
     21 N          58.2609   92.4072    4.2792 N.ar    1  UNL1       -0.2098
     22 C          58.0662   91.2296    5.1878 C.ar    1  UNL1        0.1020
     23 C          59.9874   88.9860    7.6446 C.2     1  UNL1       -0.0069
     24 C          59.0473   89.2119    6.4977 C.2     1  UNL1       -0.0014
     25 C          59.7926   87.8085    8.5531 C.3     1  UNL1        0.0939
     26 C          58.9222   86.6651    8.1228 C.3     1  UNL1        0.0262
     27 C          62.4134   86.9615   11.4104 C.3     1  UNL1        0.0946
     28 C          61.7378   86.9957   10.0716 C.2     1  UNL1        0.2232
     29 O          62.3315   86.2513    8.9126 O.2     1  UNL1       -0.2751
     30 N          60.4683   87.7744    9.8919 N.am    1  UNL1       -0.3022
     31 H          60.0786   88.2629   10.6526 H       1  UNL1        0.1497
@<TRIPOS>BOND
     1    27    28    1
     2    28    29    2
     3    28    30   am
     4    30    25    1
     5    25    26    1
     6    25    23    1
     7    23    24    2
     8    24    17    1
     9    17    18   ar
    10    18    19   ar
    11    19    20   ar
    12    20     1    1
    13     1     2    1
    14     2     3   ar
    15     3     4   ar
    16     4     5   ar
    17     5     6   ar
    18     6     7   ar
    19     7    12    1
    20    12    13    1
    21    12    14    1
    22    12    15    1
    23     7     8   ar
    24     8     9   ar
    25     9    10   ar
    26    10    11    1
    27    20    21   ar
    28    21    22   ar
    29    22    17   ar
    30    10     2   ar
    31     9     5   ar
    32    30    31    1
    33    15    16    1
@<TRIPOS>MOLECULE
*****
 31 33 0 0 0
SMALL
GASTEIGER

@<TRIPOS>ATOM
      1 O          61.7528   87.5772    9.6538 O.3     1  UNL1       -0.4352
      2 C          62.2516   86.1858    9.9094 C.ar    1  UNL1        0.1582
      3 C          62.9716   85.4366    8.8278 C.ar    1  UNL1        0.0400
      4 C          63.4703   84.0451    9.0834 C.ar    1  UNL1        0.0228
      5 C          63.2489   83.4030   10.4208 C.ar    1  UNL1        0.0886
      6 N          63.6237   82.0549   10.9612 N.ar    1  UNL1       -0.2404
      7 C          63.1353   81.9710   12.3770 C.ar    1  UNL1        0.1123
      8 S          62.4586   83.2672   12.7115 S.2     1  UNL1       -0.0676
      9 C          62.5289   84.1523   11.5025 C.ar    1  UNL1        0.0618
     10 C          62.0302   85.5436   11.2468 C.ar    1  UNL1        0.0996
     11 CL         61.3101   86.2929   12.3286 Cl      1  UNL1       -0.0785
     12 C          63.2954   80.7969   13.2967 C.3     1  UNL1        0.1289
     13 C          63.9111   81.6915   14.3314 C.3     1  UNL1        0.0360
     14 C          62.6796   79.9023   12.2620 C.3     1  UNL1        0.0360
     15 O          63.4555   79.6228   14.2165 O.3     1  UNL1       -0.3807
     16 H          63.8654   79.9152   15.0456 H       1  UNL1        0.2108
     17 C          63.6684   91.0728   11.7423 C.ar    1  UNL1        0.0191
     18 C          63.1886   91.2151   10.3282 C.ar    1  UNL1        0.0063
     19 C          62.5501   90.0499    9.6321 C.ar    1  UNL1        0.0581
     20 C          62.3914   88.7424   10.3499 C.ar    1  UNL1        0.2297
     21 N          62.8712   88.6001   11.7640 N.ar    1  UNL1       -0.2098
     22 C          63.5098   89.7654   12.4601 C.ar    1  UNL1        0.1020
     23 C          65.5376   92.8733   11.8622 C.2     1  UNL1       -0.0069
     24 C          64.3069   92.2380   12.4384 C.2     1  UNL1       -0.0014
     25 C          66.1761   94.0385   12.5584 C.3     1  UNL1        0.0939
     26 C          66.4504   95.3050   11.8028 C.3     1  UNL1        0.0262
     27 C          67.9981   92.9063   15.8972 C.3     1  UNL1        0.0946
     28 C          67.6339   93.0076   14.4456 C.2     1  UNL1        0.2232
     29 O          68.3634   92.1793   13.4298 O.2     1  UNL1       -0.2751
     30 N          66.5403   93.9372   14.0099 N.am    1  UNL1       -0.3022
     31 H          66.0615   94.4808   14.6767 H       1  UNL1        0.1497
@<TRIPOS>BOND
     1    27    28    1
     2    28    29    2
     3    28    30   am
     4    30    25    1
     5    25    26    1
     6    25    23    1
     7    23    24    2
     8    24    17    1
     9    17    18   ar
    10    18    19   ar
    11    19    20   ar
    12    20     1    1
    13     1     2    1
    14     2     3   ar
    15     3     4   ar
    16     4     5   ar
    17     5     6   ar
    18     6     7   ar
    19     7    12    1
    20    12    13    1
    21    12    14    1
    22    12    15    1
    23     7     8   ar
    24     8     9   ar
    25     9    10   ar
    26    10    11    1
    27    20    21   ar
    28    21    22   ar
    29    22    17   ar
    30    10     2   ar
    31     9     5   ar
    32    30    31    1
    33    15    16    1
@<TRIPOS>MOLECULE
*****
 31 33 0 0 0
SMALL
GASTEIGER

@<TRIPOS>ATOM
      1 O          59.7823   93.8539    2.7961 O.3     1  UNL1       -0.4352
      2 C          60.8013   93.7649    1.6989 C.ar    1  UNL1        0.1582
      3 C          62.2611   93.6895    2.0353 C.ar    1  UNL1        0.0400
      4 C          63.2801   93.6005    0.9381 C.ar    1  UNL1        0.0228
      5 C          62.8392   93.5869   -0.4955 C.ar    1  UNL1        0.0886
      6 N          63.6077   93.5073   -1.7812 N.ar    1  UNL1       -0.2404
      7 C          62.6229   93.5335   -2.9123 C.ar    1  UNL1        0.1123
      8 S          61.2457   93.6293   -2.3257 S.2     1  UNL1       -0.0676
      9 C          61.3794   93.6623   -0.8320 C.ar    1  UNL1        0.0618
     10 C          60.3604   93.7513    0.2652 C.ar    1  UNL1        0.0996
     11 CL         58.9006   93.8267   -0.0713 Cl      1  UNL1       -0.0785
     12 C          62.9566   93.4743   -4.3735 C.3     1  UNL1        0.1289
     13 C          64.0855   92.5319   -4.0775 C.3     1  UNL1        0.0360
     14 C          61.8277   94.4166   -4.6695 C.3     1  UNL1        0.0360
     15 O          63.2903   93.4151   -5.8347 O.3     1  UNL1       -0.3807
     16 H          64.0505   92.8278   -5.9692 H       1  UNL1        0.2108
     17 C          59.2073   90.3964    5.6184 C.ar    1  UNL1        0.0191
     18 C          60.5788   90.7300    5.1107 C.ar    1  UNL1        0.0063
     19 C          60.7705   91.8825    4.1699 C.ar    1  UNL1        0.0581
     20 C          59.5907   92.7014    3.7368 C.ar    1  UNL1        0.2297
     21 N          58.2192   92.3678    4.2446 N.ar    1  UNL1       -0.2098
     22 C          58.0276   91.2153    5.1854 C.ar    1  UNL1        0.1020
     23 C          60.0214   88.9840    7.6413 C.2     1  UNL1       -0.0069
     24 C          59.0157   89.2440    6.5592 C.2     1  UNL1       -0.0014
     25 C          59.8297   87.8315    8.5821 C.3     1  UNL1        0.0939
     26 C          58.9704   86.6697    8.1796 C.3     1  UNL1        0.0262
     27 C          62.4521   87.1067   11.4713 C.3     1  UNL1        0.0946
     28 C          61.7844   87.0974   10.1281 C.2     1  UNL1        0.2232
     29 O          62.4037   86.3448    8.9879 O.2     1  UNL1       -0.2751
     30 N          60.4974   87.8408    9.9253 N.am    1  UNL1       -0.3022
     31 H          60.0910   88.3347   10.6736 H       1  UNL1        0.1497
@<TRIPOS>BOND
     1    27    28    1
     2    28    29    2
     3    28    30   am
     4    30    25    1
     5    25    26    1
     6    25    23    1
     7    23    24    2
     8    24    17    1
     9    17    18   ar
    10    18    19   ar
    11    19    20   ar
    12    20     1    1
    13     1     2    1
    14     2     3   ar
    15     3     4   ar
    16     4     5   ar
    17     5     6   ar
    18     6     7   ar
    19     7    12    1
    20    12    13    1
    21    12    14    1
    22    12    15    1
    23     7     8   ar
    24     8     9   ar
    25     9    10   ar
    26    10    11    1
    27    20    21   ar
    28    21    22   ar
    29    22    17   ar
    30    10     2   ar
    31     9     5   ar
    32    30    31    1
    33    15    16    1
