@<TRIPOS>MOLECULE
*****
 34 38 0 0 0
SMALL
GASTEIGER

@<TRIPOS>ATOM
      1 N          60.8372   86.9617    9.5305 N.3     1  UNL1       -0.2712
      2 C          61.5515   86.1681    8.4770 C.3     1  UNL1        0.0738
      3 C          62.4885   85.2208    9.1659 C.3     1  UNL1        0.0372
      4 C          63.5091   84.1449    8.9405 C.3     1  UNL1        0.0245
      5 C          64.0047   83.6880   10.2805 C.3     1  UNL1        0.0909
      6 N          63.2904   84.4816   11.3341 N.pl3   1  UNL1       -0.3077
      7 C          62.3534   85.4289   10.6452 C.3     1  UNL1        0.0901
      8 C          61.3328   86.5049   10.8706 C.3     1  UNL1        0.0921
      9 C          63.4799   84.3509   12.8164 C.ar    1  UNL1        0.0517
     10 C          63.7356   85.5711   13.6503 C.ar    1  UNL1        0.0145
     11 C          63.9251   85.4403   15.1325 C.ar    1  UNL1        0.0013
     12 C          63.8588   84.0893   15.7808 C.ar    1  UNL1        0.0000
     13 C          63.6030   82.8690   14.9469 C.ar    1  UNL1        0.0051
     14 C          63.4135   82.9997   13.4646 C.ar    1  UNL1        0.0847
     15 C          63.1578   81.7795   12.6307 C.3     1  UNL1        0.4197
     16 F          62.9020   80.5592   11.7967 F       1  UNL1       -0.1658
     17 F          61.6838   82.0522   12.6837 F       1  UNL1       -0.1658
     18 F          64.6319   81.5067   12.5776 F       1  UNL1       -0.1658
     19 C          59.8081   88.0254    9.2869 C.3     1  UNL1        0.0731
     20 C          60.2087   89.4709    9.2877 C.3     1  UNL1        0.0294
     21 C          60.8383   90.0741   10.5083 C.3     1  UNL1        0.0666
     22 S          62.2778   90.4947   10.4797 S.3     1  UNL1       -0.0756
     23 C          64.8665   92.3932   11.0662 C.3     1  UNL1        0.1340
     24 N          64.2632   91.4054   12.0203 N.ar    1  UNL1       -0.2872
     25 C          63.0734   90.5328   11.7508 C.ar    1  UNL1        0.1933
     26 N          62.8187   89.7049   12.9754 N.ar    1  UNL1       -0.1221
     27 N          63.8512   90.0659   14.0019 N.ar    1  UNL1       -0.1266
     28 C          64.7440   91.1169   13.4117 C.ar    1  UNL1        0.1862
     29 C          65.9124   91.7654   14.0931 C.ar    1  UNL1        0.1362
     30 C          67.2428   91.8284   13.4031 C.ar    1  UNL1        0.1211
     31 N          68.4111   92.4769   14.0845 N.ar    1  UNL1       -0.2390
     32 C          68.2490   93.0625   15.4560 C.ar    1  UNL1        0.1195
     33 C          66.9186   92.9996   16.1460 C.ar    1  UNL1        0.1196
     34 N          65.7503   92.3510   15.4645 N.ar    1  UNL1       -0.2375
@<TRIPOS>BOND
     1    23    24    1
     2    24    25   ar
     3    25    22    1
     4    22    21    1
     5    21    20    1
     6    20    19    1
     7    19     1    1
     8     1     2    1
     9     2     3    1
    10     3     4    1
    11     4     5    1
    12     5     6    1
    13     6     9    1
    14     9    10   ar
    15    10    11   ar
    16    11    12   ar
    17    12    13   ar
    18    13    14   ar
    19    14    15    1
    20    15    16    1
    21    15    17    1
    22    15    18    1
    23     6     7    1
    24     7     8    1
    25    25    26   ar
    26    26    27   ar
    27    27    28   ar
    28    28    29    1
    29    29    30   ar
    30    30    31   ar
    31    31    32   ar
    32    32    33   ar
    33    33    34   ar
    34    28    24   ar
    35    34    29   ar
    36     8     1    1
    37     7     3    1
    38    14     9   ar
@<TRIPOS>MOLECULE
*****
 34 38 0 0 0
SMALL
GASTEIGER

@<TRIPOS>ATOM
      1 N          60.9678   87.1915   10.6430 N.3     1  UNL1       -0.2712
      2 C          61.7565   87.0865    9.3714 C.3     1  UNL1        0.0738
      3 C          62.5335   85.8041    9.4126 C.3     1  UNL1        0.0372
      4 C          63.5011   84.9465    8.6521 C.3     1  UNL1        0.0245
      5 C          63.7907   83.7290    9.4791 C.3     1  UNL1        0.0909
      6 N          63.0019   83.8341   10.7507 N.pl3   1  UNL1       -0.3077
      7 C          62.2250   85.1165   10.7095 C.3     1  UNL1        0.0901
      8 C          61.2573   85.9741   11.4700 C.3     1  UNL1        0.0921
      9 C          62.9919   82.8326   11.8673 C.ar    1  UNL1        0.0517
     10 C          62.6209   81.4056   11.5917 C.ar    1  UNL1        0.0145
     11 C          62.6109   80.4041   12.7083 C.ar    1  UNL1        0.0013
     12 C          62.9719   80.8296   14.1006 C.ar    1  UNL1        0.0000
     13 C          63.3430   82.2566   14.3764 C.ar    1  UNL1        0.0051
     14 C          63.3530   83.2581   13.2597 C.ar    1  UNL1        0.0847
     15 C          63.7240   84.6851   13.5354 C.3     1  UNL1        0.4197
     16 F          64.0950   86.1121   13.8111 F       1  UNL1       -0.1658
     17 F          65.0951   84.4358   12.9805 F       1  UNL1       -0.1658
     18 F          62.3528   84.9345   14.0903 F       1  UNL1       -0.1658
     19 C          60.0506   88.3166   11.0212 C.3     1  UNL1        0.0731
     20 C          60.1598   89.6400   10.3237 C.3     1  UNL1        0.0294
     21 C          61.1381   90.6669   10.8121 C.3     1  UNL1        0.0666
     22 S          62.6106   90.3874   10.7535 S.3     1  UNL1       -0.0756
     23 C          64.9641   92.5100   11.5315 C.3     1  UNL1        0.1340
     24 N          64.5050   91.3555   12.3718 N.ar    1  UNL1       -0.2872
     25 C          63.4233   90.3798   12.0142 C.ar    1  UNL1        0.1933
     26 N          63.2967   89.3952   13.1388 N.ar    1  UNL1       -0.1221
     27 N          64.3003   89.7623   14.1914 N.ar    1  UNL1       -0.1266
     28 C          65.0472   90.9738   13.7175 C.ar    1  UNL1        0.1862
     29 C          66.1435   91.6797   14.4589 C.ar    1  UNL1        0.1362
     30 C          65.8471   92.3703   15.7571 C.ar    1  UNL1        0.1211
     31 N          66.9435   93.0762   16.4985 N.ar    1  UNL1       -0.2390
     32 C          68.3363   93.0915   15.9416 C.ar    1  UNL1        0.1195
     33 C          68.6327   92.4010   14.6434 C.ar    1  UNL1        0.1196
     34 N          67.5362   91.6951   13.9021 N.ar    1  UNL1       -0.2375
@<TRIPOS>BOND
     1    23    24    1
     2    24    25   ar
     3    25    22    1
     4    22    21    1
     5    21    20    1
     6    20    19    1
     7    19     1    1
     8     1     2    1
     9     2     3    1
    10     3     4    1
    11     4     5    1
    12     5     6    1
    13     6     9    1
    14     9    10   ar
    15    10    11   ar
    16    11    12   ar
    17    12    13   ar
    18    13    14   ar
    19    14    15    1
    20    15    16    1
    21    15    17    1
    22    15    18    1
    23     6     7    1
    24     7     8    1
    25    25    26   ar
    26    26    27   ar
    27    27    28   ar
    28    28    29    1
    29    29    30   ar
    30    30    31   ar
    31    31    32   ar
    32    32    33   ar
    33    33    34   ar
    34    28    24   ar
    35    34    29   ar
    36     8     1    1
    37     7     3    1
    38    14     9   ar
@<TRIPOS>MOLECULE
*****
 34 38 0 0 0
SMALL
GASTEIGER

@<TRIPOS>ATOM
      1 N          64.0323   86.1455   15.3000 N.3     1  UNL1       -0.2712
      2 C          63.5108   86.7732   16.5585 C.3     1  UNL1        0.0738
      3 C          63.4766   88.2590   16.3557 C.3     1  UNL1        0.0372
      4 C          63.1331   89.5652   17.0082 C.3     1  UNL1        0.0245
      5 C          63.4212   90.6632   16.0275 C.3     1  UNL1        0.0909
      6 N          63.9427   90.0354   14.7689 N.pl3   1  UNL1       -0.3077
      7 C          63.9769   88.5496   14.9718 C.3     1  UNL1        0.0901
      8 C          64.3204   87.2433   14.3193 C.3     1  UNL1        0.0921
      9 C          64.3573   90.7653   13.5258 C.ar    1  UNL1        0.0517
     10 C          63.5740   90.5927   12.2583 C.ar    1  UNL1        0.0145
     11 C          63.9885   91.3226   11.0151 C.ar    1  UNL1        0.0013
     12 C          65.1863   92.2252   11.0395 C.ar    1  UNL1        0.0000
     13 C          65.9696   92.3979   12.3071 C.ar    1  UNL1        0.0051
     14 C          65.5551   91.6680   13.5502 C.ar    1  UNL1        0.0847
     15 C          66.3383   91.8406   14.8178 C.3     1  UNL1        0.4197
     16 F          67.1216   92.0133   16.0853 F       1  UNL1       -0.1658
     17 F          66.9172   90.4674   14.6471 F       1  UNL1       -0.1658
     18 F          65.7595   93.2139   14.9885 F       1  UNL1       -0.1658
     19 C          64.2309   84.6776   15.0635 C.3     1  UNL1        0.0731
     20 C          64.9907   84.2080   13.8585 C.3     1  UNL1        0.0294
     21 C          64.3720   83.2123   12.9226 C.3     1  UNL1        0.0666
     22 S          63.9613   83.6343   11.5431 S.3     1  UNL1       -0.0756
     23 C          62.9859   84.9045    8.6997 C.3     1  UNL1        0.1340
     24 N          62.4652   85.2764   10.0564 N.ar    1  UNL1       -0.2872
     25 C          62.9136   84.6926   11.3633 C.ar    1  UNL1        0.1933
     26 N          62.1302   85.3528   12.4590 N.ar    1  UNL1       -0.1221
     27 N          61.1978   86.3447   11.8293 N.ar    1  UNL1       -0.1266
     28 C          61.4048   86.2976   10.3443 C.ar    1  UNL1        0.1862
     29 C          60.6788   87.1260    9.3261 C.ar    1  UNL1        0.1362
     30 C          60.8631   88.6144    9.3009 C.ar    1  UNL1        0.1211
     31 N          60.1372   89.4429    8.2827 N.ar    1  UNL1       -0.2390
     32 C          59.2269   88.7828    7.2898 C.ar    1  UNL1        0.1195
     33 C          59.0426   87.2944    7.3151 C.ar    1  UNL1        0.1196
     34 N          59.7686   86.4660    8.3333 N.ar    1  UNL1       -0.2375
@<TRIPOS>BOND
     1    23    24    1
     2    24    25   ar
     3    25    22    1
     4    22    21    1
     5    21    20    1
     6    20    19    1
     7    19     1    1
     8     1     2    1
     9     2     3    1
    10     3     4    1
    11     4     5    1
    12     5     6    1
    13     6     9    1
    14     9    10   ar
    15    10    11   ar
    16    11    12   ar
    17    12    13   ar
    18    13    14   ar
    19    14    15    1
    20    15    16    1
    21    15    17    1
    22    15    18    1
    23     6     7    1
    24     7     8    1
    25    25    26   ar
    26    26    27   ar
    27    27    28   ar
    28    28    29    1
    29    29    30   ar
    30    30    31   ar
    31    31    32   ar
    32    32    33   ar
    33    33    34   ar
    34    28    24   ar
    35    34    29   ar
    36     8     1    1
    37     7     3    1
    38    14     9   ar
@<TRIPOS>MOLECULE
*****
 34 38 0 0 0
SMALL
GASTEIGER

@<TRIPOS>ATOM
      1 N          62.1505   86.8018   10.9323 N.3     1  UNL1       -0.2712
      2 C          63.0021   87.4108   12.0065 C.3     1  UNL1        0.0738
      3 C          63.3810   86.3246   12.9690 C.3     1  UNL1        0.0372
      4 C          64.1415   86.0297   14.2279 C.3     1  UNL1        0.0245
      5 C          63.9942   84.5671   14.5266 C.3     1  UNL1        0.0909
      6 N          63.1426   83.9581   13.4523 N.pl3   1  UNL1       -0.3077
      7 C          62.7637   85.0443   12.4897 C.3     1  UNL1        0.0901
      8 C          62.0032   85.3392   11.2309 C.3     1  UNL1        0.0921
      9 C          62.7406   82.5161   13.3573 C.ar    1  UNL1        0.0517
     10 C          61.8631   81.9110   14.4126 C.ar    1  UNL1        0.0145
     11 C          61.4610   80.4690   14.3176 C.ar    1  UNL1        0.0013
     12 C          61.9366   79.6321   13.1673 C.ar    1  UNL1        0.0000
     13 C          62.8142   80.2371   12.1119 C.ar    1  UNL1        0.0051
     14 C          63.2162   81.6791   12.2069 C.ar    1  UNL1        0.0847
     15 C          64.0938   82.2841   11.1515 C.3     1  UNL1        0.4197
     16 F          64.9713   82.8892   10.0962 F       1  UNL1       -0.1658
     17 F          65.1903   82.4540   12.1608 F       1  UNL1       -0.1658
     18 F          62.9971   82.1143   10.1422 F       1  UNL1       -0.1658
     19 C          61.5515   87.5279    9.7644 C.3     1  UNL1        0.0731
     20 C          61.9646   88.9387    9.4663 C.3     1  UNL1        0.0294
     21 C          61.2687   90.0828   10.1423 C.3     1  UNL1        0.0666
     22 S          61.7166   90.5364   11.5000 S.3     1  UNL1       -0.0756
     23 C          63.4659   90.6139   14.2539 C.3     1  UNL1        0.1340
     24 N          63.8677   91.2093   12.9371 N.ar    1  UNL1       -0.2872
     25 C          63.0637   91.1736   11.6713 C.ar    1  UNL1        0.1933
     26 N          63.8432   91.8872   10.6067 N.ar    1  UNL1       -0.1221
     27 N          65.1290   92.3638   11.2146 N.ar    1  UNL1       -0.1266
     28 C          65.1442   91.9449   12.6548 C.ar    1  UNL1        0.1862
     29 C          66.2430   92.2142   13.6398 C.ar    1  UNL1        0.1362
     30 C          67.6752   92.0264   13.2357 C.ar    1  UNL1        0.1211
     31 N          68.7739   92.2957   14.2207 N.ar    1  UNL1       -0.2390
     32 C          68.4403   92.7529   15.6099 C.ar    1  UNL1        0.1195
     33 C          67.0080   92.9407   16.0140 C.ar    1  UNL1        0.1196
     34 N          65.9093   92.6714   15.0289 N.ar    1  UNL1       -0.2375
@<TRIPOS>BOND
     1    23    24    1
     2    24    25   ar
     3    25    22    1
     4    22    21    1
     5    21    20    1
     6    20    19    1
     7    19     1    1
     8     1     2    1
     9     2     3    1
    10     3     4    1
    11     4     5    1
    12     5     6    1
    13     6     9    1
    14     9    10   ar
    15    10    11   ar
    16    11    12   ar
    17    12    13   ar
    18    13    14   ar
    19    14    15    1
    20    15    16    1
    21    15    17    1
    22    15    18    1
    23     6     7    1
    24     7     8    1
    25    25    26   ar
    26    26    27   ar
    27    27    28   ar
    28    28    29    1
    29    29    30   ar
    30    30    31   ar
    31    31    32   ar
    32    32    33   ar
    33    33    34   ar
    34    28    24   ar
    35    34    29   ar
    36     8     1    1
    37     7     3    1
    38    14     9   ar
@<TRIPOS>MOLECULE
*****
 34 38 0 0 0
SMALL
GASTEIGER

@<TRIPOS>ATOM
      1 N          60.8731   87.2276   10.7013 N.3     1  UNL1       -0.2712
      2 C          61.6656   87.1727    9.4290 C.3     1  UNL1        0.0738
      3 C          62.4738   85.9091    9.4405 C.3     1  UNL1        0.0372
      4 C          63.4631   85.0942    8.6613 C.3     1  UNL1        0.0245
      5 C          63.7815   83.8645    9.4591 C.3     1  UNL1        0.0909
      6 N          62.9889   83.9194   10.7315 N.pl3   1  UNL1       -0.3077
      7 C          62.1807   85.1830   10.7200 C.3     1  UNL1        0.0901
      8 C          61.1914   85.9979   11.4992 C.3     1  UNL1        0.0921
      9 C          63.0022   82.8913   11.8236 C.ar    1  UNL1        0.0517
     10 C          62.6430   81.4674   11.5177 C.ar    1  UNL1        0.0145
     11 C          62.6563   80.4393   12.6098 C.ar    1  UNL1        0.0013
     12 C          63.0288   80.8350   14.0079 C.ar    1  UNL1        0.0000
     13 C          63.3880   82.2588   14.3139 C.ar    1  UNL1        0.0051
     14 C          63.3747   83.2870   13.2218 C.ar    1  UNL1        0.0847
     15 C          63.7339   84.7108   13.5277 C.3     1  UNL1        0.4197
     16 F          64.0931   86.1347   13.8337 F       1  UNL1       -0.1658
     17 F          62.3643   84.9340   14.0972 F       1  UNL1       -0.1658
     18 F          65.1036   84.4877   12.9582 F       1  UNL1       -0.1658
     19 C          59.9281   88.3203   11.1049 C.3     1  UNL1        0.0731
     20 C          60.3604   89.3562   12.0999 C.3     1  UNL1        0.0294
     21 C          61.5919   90.1737   11.8446 C.3     1  UNL1        0.0666
     22 S          62.7615   90.0797   12.7790 S.3     1  UNL1       -0.0756
     23 C          63.8156   91.6212   10.1027 C.3     1  UNL1        0.1340
     24 N          64.3324   91.8212   11.4966 N.ar    1  UNL1       -0.2872
     25 C          63.8479   91.1127   12.7267 C.ar    1  UNL1        0.1933
     26 N          64.6406   91.6184   13.8955 N.ar    1  UNL1       -0.1221
     27 N          65.6150   92.6395   13.3877 N.ar    1  UNL1       -0.1266
     28 C          65.4246   92.7649   11.9050 C.ar    1  UNL1        0.1862
     29 C          66.1916   93.6742   10.9914 C.ar    1  UNL1        0.1362
     30 C          67.3994   93.1620   10.2642 C.ar    1  UNL1        0.1211
     31 N          68.1665   94.0713    9.3505 N.ar    1  UNL1       -0.2390
     32 C          67.7256   95.4930    9.1641 C.ar    1  UNL1        0.1195
     33 C          66.5178   96.0052    9.8913 C.ar    1  UNL1        0.1196
     34 N          65.7508   95.0958   10.8050 N.ar    1  UNL1       -0.2375
@<TRIPOS>BOND
     1    23    24    1
     2    24    25   ar
     3    25    22    1
     4    22    21    1
     5    21    20    1
     6    20    19    1
     7    19     1    1
     8     1     2    1
     9     2     3    1
    10     3     4    1
    11     4     5    1
    12     5     6    1
    13     6     9    1
    14     9    10   ar
    15    10    11   ar
    16    11    12   ar
    17    12    13   ar
    18    13    14   ar
    19    14    15    1
    20    15    16    1
    21    15    17    1
    22    15    18    1
    23     6     7    1
    24     7     8    1
    25    25    26   ar
    26    26    27   ar
    27    27    28   ar
    28    28    29    1
    29    29    30   ar
    30    30    31   ar
    31    31    32   ar
    32    32    33   ar
    33    33    34   ar
    34    28    24   ar
    35    34    29   ar
    36     8     1    1
    37     7     3    1
    38    14     9   ar
@<TRIPOS>MOLECULE
*****
 34 38 0 0 0
SMALL
GASTEIGER

@<TRIPOS>ATOM
      1 N          63.9876   86.2651   15.3066 N.3     1  UNL1       -0.2712
      2 C          63.4213   86.9141   16.5347 C.3     1  UNL1        0.0738
      3 C          63.4675   88.4002   16.3367 C.3     1  UNL1        0.0372
      4 C          63.1461   89.7199   16.9733 C.3     1  UNL1        0.0245
      5 C          63.5422   90.8050   16.0163 C.3     1  UNL1        0.0909
      6 N          64.1086   90.1559   14.7883 N.pl3   1  UNL1       -0.3077
      7 C          64.0624   88.6697   14.9863 C.3     1  UNL1        0.0901
      8 C          64.3838   87.3501   14.3497 C.3     1  UNL1        0.0921
      9 C          64.6296   90.8680   13.5752 C.ar    1  UNL1        0.0517
     10 C          65.9121   91.6419   13.6530 C.ar    1  UNL1        0.0145
     11 C          66.4331   92.3540   12.4400 C.ar    1  UNL1        0.0013
     12 C          65.6716   92.2922   11.1491 C.ar    1  UNL1        0.0000
     13 C          64.3890   91.5182   11.0713 C.ar    1  UNL1        0.0051
     14 C          63.8680   90.8061   12.2844 C.ar    1  UNL1        0.0847
     15 C          62.5855   90.0321   12.2066 C.3     1  UNL1        0.4197
     16 F          61.3029   89.2582   12.1288 F       1  UNL1       -0.1658
     17 F          61.8385   91.2157   12.7463 F       1  UNL1       -0.1658
     18 F          63.3324   88.8485   11.6668 F       1  UNL1       -0.1658
     19 C          64.1323   84.7900   15.0760 C.3     1  UNL1        0.0731
     20 C          65.0159   84.2864   13.9734 C.3     1  UNL1        0.0294
     21 C          64.5149   83.2293   13.0343 C.3     1  UNL1        0.0666
     22 S          64.0896   83.6011   11.6448 S.3     1  UNL1       -0.0756
     23 C          63.1406   84.8383    8.7781 C.3     1  UNL1        0.1340
     24 N          62.5718   85.1884   10.1211 N.ar    1  UNL1       -0.2872
     25 C          63.0080   84.6197   11.4388 C.ar    1  UNL1        0.1933
     26 N          62.1728   85.2485   12.5144 N.ar    1  UNL1       -0.1221
     27 N          61.2203   86.2059   11.8615 N.ar    1  UNL1       -0.1266
     28 C          61.4669   86.1688   10.3823 C.ar    1  UNL1        0.1862
     29 C          60.7368   86.9711    9.3464 C.ar    1  UNL1        0.1362
     30 C          60.9008   88.4613    9.2990 C.ar    1  UNL1        0.1211
     31 N          60.1707   89.2637    8.2630 N.ar    1  UNL1       -0.2390
     32 C          59.2766   88.5756    7.2744 C.ar    1  UNL1        0.1195
     33 C          59.1126   87.0853    7.3218 C.ar    1  UNL1        0.1196
     34 N          59.8428   86.2831    8.3578 N.ar    1  UNL1       -0.2375
@<TRIPOS>BOND
     1    23    24    1
     2    24    25   ar
     3    25    22    1
     4    22    21    1
     5    21    20    1
     6    20    19    1
     7    19     1    1
     8     1     2    1
     9     2     3    1
    10     3     4    1
    11     4     5    1
    12     5     6    1
    13     6     9    1
    14     9    10   ar
    15    10    11   ar
    16    11    12   ar
    17    12    13   ar
    18    13    14   ar
    19    14    15    1
    20    15    16    1
    21    15    17    1
    22    15    18    1
    23     6     7    1
    24     7     8    1
    25    25    26   ar
    26    26    27   ar
    27    27    28   ar
    28    28    29    1
    29    29    30   ar
    30    30    31   ar
    31    31    32   ar
    32    32    33   ar
    33    33    34   ar
    34    28    24   ar
    35    34    29   ar
    36     8     1    1
    37     7     3    1
    38    14     9   ar
@<TRIPOS>MOLECULE
*****
 34 38 0 0 0
SMALL
GASTEIGER

@<TRIPOS>ATOM
      1 N          61.9307   86.2590    9.4728 N.3     1  UNL1       -0.2712
      2 C          62.7015   85.1181    8.8775 C.3     1  UNL1        0.0738
      3 C          63.3798   84.3836    9.9956 C.3     1  UNL1        0.0372
      4 C          64.2754   83.2246   10.3188 C.3     1  UNL1        0.0245
      5 C          64.4775   83.1950   11.8048 C.3     1  UNL1        0.0909
      6 N          63.7067   84.3359   12.4001 N.pl3   1  UNL1       -0.3077
      7 C          63.0283   85.0705   11.2820 C.3     1  UNL1        0.0901
      8 C          62.1327   86.2295   10.9588 C.3     1  UNL1        0.0921
      9 C          63.6280   84.6816   13.8577 C.ar    1  UNL1        0.0517
     10 C          64.1312   86.0091   14.3419 C.ar    1  UNL1        0.0145
     11 C          64.0526   86.3547   15.7994 C.ar    1  UNL1        0.0013
     12 C          63.4708   85.3728   16.7727 C.ar    1  UNL1        0.0000
     13 C          62.9676   84.0452   16.2885 C.ar    1  UNL1        0.0051
     14 C          63.0462   83.6996   14.8310 C.ar    1  UNL1        0.0847
     15 C          62.5431   82.3721   14.3468 C.3     1  UNL1        0.4197
     16 F          62.0400   81.0445   13.8626 F       1  UNL1       -0.1658
     17 F          63.9295   81.8089   14.4503 F       1  UNL1       -0.1658
     18 F          61.1566   82.9352   14.2433 F       1  UNL1       -0.1658
     19 C          61.1032   87.2545    8.7151 C.3     1  UNL1        0.0731
     20 C          60.4247   88.3759    9.4446 C.3     1  UNL1        0.0294
     21 C          61.1697   89.6472    9.7256 C.3     1  UNL1        0.0666
     22 S          61.5351   90.0063   11.1354 S.3     1  UNL1       -0.0756
     23 C          63.1502   90.0415   13.9709 C.3     1  UNL1        0.1340
     24 N          63.5528   90.7611   12.7178 N.ar    1  UNL1       -0.2872
     25 C          62.8105   90.7450   11.4145 C.ar    1  UNL1        0.1933
     26 N          63.5673   91.5971   10.4393 N.ar    1  UNL1       -0.1221
     27 N          64.7775   92.1399   11.1399 N.ar    1  UNL1       -0.1266
     28 C          64.7686   91.6233   12.5482 C.ar    1  UNL1        0.1862
     29 C          65.7951   91.9173   13.6017 C.ar    1  UNL1        0.1362
     30 C          65.3664   92.1710   15.0165 C.ar    1  UNL1        0.1211
     31 N          66.3929   92.4649   16.0700 N.ar    1  UNL1       -0.2390
     32 C          67.8482   92.5051   15.7086 C.ar    1  UNL1        0.1195
     33 C          68.2769   92.2514   14.2937 C.ar    1  UNL1        0.1196
     34 N          67.2503   91.9575   13.2402 N.ar    1  UNL1       -0.2375
@<TRIPOS>BOND
     1    23    24    1
     2    24    25   ar
     3    25    22    1
     4    22    21    1
     5    21    20    1
     6    20    19    1
     7    19     1    1
     8     1     2    1
     9     2     3    1
    10     3     4    1
    11     4     5    1
    12     5     6    1
    13     6     9    1
    14     9    10   ar
    15    10    11   ar
    16    11    12   ar
    17    12    13   ar
    18    13    14   ar
    19    14    15    1
    20    15    16    1
    21    15    17    1
    22    15    18    1
    23     6     7    1
    24     7     8    1
    25    25    26   ar
    26    26    27   ar
    27    27    28   ar
    28    28    29    1
    29    29    30   ar
    30    30    31   ar
    31    31    32   ar
    32    32    33   ar
    33    33    34   ar
    34    28    24   ar
    35    34    29   ar
    36     8     1    1
    37     7     3    1
    38    14     9   ar
@<TRIPOS>MOLECULE
*****
 34 38 0 0 0
SMALL
GASTEIGER

@<TRIPOS>ATOM
      1 N          63.8798   89.3340   14.3550 N.3     1  UNL1       -0.2712
      2 C          64.3351   90.6294   13.7511 C.3     1  UNL1        0.0738
      3 C          63.8436   90.6786   12.3348 C.3     1  UNL1        0.0372
      4 C          63.8212   91.5096   11.0862 C.3     1  UNL1        0.0245
      5 C          63.0483   90.7583   10.0431 C.3     1  UNL1        0.0909
      6 N          62.5930   89.4629   10.6470 N.pl3   1  UNL1       -0.3077
      7 C          63.0845   89.4137   12.0633 C.3     1  UNL1        0.0901
      8 C          63.1069   88.5826   13.3119 C.3     1  UNL1        0.0921
      9 C          61.7876   88.4028    9.9559 C.ar    1  UNL1        0.0517
     10 C          62.4805   87.3052    9.2042 C.ar    1  UNL1        0.0145
     11 C          61.6750   86.2451    8.5131 C.ar    1  UNL1        0.0013
     12 C          60.1768   86.2827    8.5737 C.ar    1  UNL1        0.0000
     13 C          59.4838   87.3804    9.3255 C.ar    1  UNL1        0.0051
     14 C          60.2892   88.4404   10.0166 C.ar    1  UNL1        0.0847
     15 C          59.5964   89.5380   10.7683 C.3     1  UNL1        0.4197
     16 F          58.9035   90.6356   11.5200 F       1  UNL1       -0.1658
     17 F          59.4181   88.6215   11.9422 F       1  UNL1       -0.1658
     18 F          59.7746   90.4546    9.5943 F       1  UNL1       -0.1658
     19 C          64.1500   88.8712   15.7560 C.3     1  UNL1        0.0731
     20 C          63.0824   88.9873   16.8032 C.3     1  UNL1        0.0294
     21 C          62.6675   87.7786   17.5886 C.3     1  UNL1        0.0666
     22 S          63.3440   86.4611   17.3508 S.3     1  UNL1       -0.0756
     23 C          65.2108   85.6789   14.7910 C.3     1  UNL1        0.1340
     24 N          63.7915   85.2468   15.0120 N.ar    1  UNL1       -0.2872
     25 C          62.9334   85.6063   16.1886 C.ar    1  UNL1        0.1933
     26 N          61.5927   84.9610   15.9989 N.ar    1  UNL1       -0.1221
     27 N          61.6222   84.2026   14.7051 N.ar    1  UNL1       -0.1266
     28 C          62.9811   84.3792   14.0951 C.ar    1  UNL1        0.1862
     29 C          63.4477   83.7915   12.7963 C.ar    1  UNL1        0.1362
     30 C          64.2317   82.5127   12.7904 C.ar    1  UNL1        0.1211
     31 N          64.6983   81.9249   11.4916 N.ar    1  UNL1       -0.2390
     32 C          64.3809   82.6161   10.1987 C.ar    1  UNL1        0.1195
     33 C          63.5969   83.8949   10.2045 C.ar    1  UNL1        0.1196
     34 N          63.1303   84.4826   11.5034 N.ar    1  UNL1       -0.2375
@<TRIPOS>BOND
     1    23    24    1
     2    24    25   ar
     3    25    22    1
     4    22    21    1
     5    21    20    1
     6    20    19    1
     7    19     1    1
     8     1     2    1
     9     2     3    1
    10     3     4    1
    11     4     5    1
    12     5     6    1
    13     6     9    1
    14     9    10   ar
    15    10    11   ar
    16    11    12   ar
    17    12    13   ar
    18    13    14   ar
    19    14    15    1
    20    15    16    1
    21    15    17    1
    22    15    18    1
    23     6     7    1
    24     7     8    1
    25    25    26   ar
    26    26    27   ar
    27    27    28   ar
    28    28    29    1
    29    29    30   ar
    30    30    31   ar
    31    31    32   ar
    32    32    33   ar
    33    33    34   ar
    34    28    24   ar
    35    34    29   ar
    36     8     1    1
    37     7     3    1
    38    14     9   ar
@<TRIPOS>MOLECULE
*****
 34 38 0 0 0
SMALL
GASTEIGER

@<TRIPOS>ATOM
      1 N          62.0441   86.5147   10.6947 N.3     1  UNL1       -0.2712
      2 C          62.7945   86.8371   11.9529 C.3     1  UNL1        0.0738
      3 C          63.3045   85.5504   12.5309 C.3     1  UNL1        0.0372
      4 C          64.0835   84.9544   13.6658 C.3     1  UNL1        0.0245
      5 C          64.1298   83.4684   13.4664 C.3     1  UNL1        0.0909
      6 N          63.3794   83.1460   12.2081 N.pl3   1  UNL1       -0.3077
      7 C          62.8694   84.4328   11.6301 C.3     1  UNL1        0.0901
      8 C          62.0904   85.0288   10.4952 C.3     1  UNL1        0.0921
      9 C          63.1749   81.7773   11.6296 C.ar    1  UNL1        0.0517
     10 C          63.5010   81.5155   10.1892 C.ar    1  UNL1        0.0145
     11 C          63.2965   80.1467    9.6107 C.ar    1  UNL1        0.0013
     12 C          62.7660   79.0397   10.4726 C.ar    1  UNL1        0.0000
     13 C          62.4398   79.3015   11.9132 C.ar    1  UNL1        0.0051
     14 C          62.6443   80.6703   12.4917 C.ar    1  UNL1        0.0847
     15 C          62.3182   80.9321   13.9322 C.3     1  UNL1        0.4197
     16 F          61.9921   81.1939   15.3727 F       1  UNL1       -0.1658
     17 F          60.9361   81.3641   13.5408 F       1  UNL1       -0.1658
     18 F          63.7003   80.5001   14.3237 F       1  UNL1       -0.1658
     19 C          61.3664   87.5045    9.7941 C.3     1  UNL1        0.0731
     20 C          61.9320   88.8849    9.6364 C.3     1  UNL1        0.0294
     21 C          61.3982   90.0137   10.4677 C.3     1  UNL1        0.0666
     22 S          62.0172   90.3229   11.7986 S.3     1  UNL1       -0.0756
     23 C          63.9394   90.5618   14.4249 C.3     1  UNL1        0.1340
     24 N          64.2179   91.1474   13.0723 N.ar    1  UNL1       -0.2872
     25 C          63.3343   91.0376   11.8651 C.ar    1  UNL1        0.1933
     26 N          63.9991   91.7679   10.7361 N.ar    1  UNL1       -0.1221
     27 N          65.2936   92.3291   11.2455 N.ar    1  UNL1       -0.1266
     28 C          65.4288   91.9456   12.6893 C.ar    1  UNL1        0.1862
     29 C          66.5739   92.2984   13.5918 C.ar    1  UNL1        0.1362
     30 C          66.3322   93.1175   14.8249 C.ar    1  UNL1        0.1211
     31 N          67.4773   93.4703   15.7273 N.ar    1  UNL1       -0.2390
     32 C          68.8641   93.0038   15.3965 C.ar    1  UNL1        0.1195
     33 C          69.1058   92.1847   14.1634 C.ar    1  UNL1        0.1196
     34 N          67.9606   91.8320   13.2610 N.ar    1  UNL1       -0.2375
@<TRIPOS>BOND
     1    23    24    1
     2    24    25   ar
     3    25    22    1
     4    22    21    1
     5    21    20    1
     6    20    19    1
     7    19     1    1
     8     1     2    1
     9     2     3    1
    10     3     4    1
    11     4     5    1
    12     5     6    1
    13     6     9    1
    14     9    10   ar
    15    10    11   ar
    16    11    12   ar
    17    12    13   ar
    18    13    14   ar
    19    14    15    1
    20    15    16    1
    21    15    17    1
    22    15    18    1
    23     6     7    1
    24     7     8    1
    25    25    26   ar
    26    26    27   ar
    27    27    28   ar
    28    28    29    1
    29    29    30   ar
    30    30    31   ar
    31    31    32   ar
    32    32    33   ar
    33    33    34   ar
    34    28    24   ar
    35    34    29   ar
    36     8     1    1
    37     7     3    1
    38    14     9   ar
