@<TRIPOS>MOLECULE
*****
 35 39 0 0 0
SMALL
GASTEIGER

@<TRIPOS>ATOM
      1 N          63.6885   87.7848   15.8952 N.am    1  UNL1       -0.2681
      2 C          64.1561   88.8228   14.9186 C.2     1  UNL1        0.3082
      3 O          64.3515   88.4614   13.4760 O.2     1  UNL1       -0.2522
      4 N          64.4285   90.2224   15.3847 N.am    1  UNL1       -0.2681
      5 H          63.5602   88.0220   16.8420 H       1  UNL1        0.1564
      6 H          64.3002   90.4596   16.3315 H       1  UNL1        0.1564
      7 C          62.8714   83.5862   14.4972 C.ar    1  UNL1        0.0002
      8 C          63.6275   84.5362   13.6163 C.ar    1  UNL1        0.0013
      9 C          63.8998   85.9358   14.0823 C.ar    1  UNL1        0.0147
     10 C          63.4161   86.3852   15.4291 C.ar    1  UNL1        0.0516
     11 C          62.6601   85.4352   16.3100 C.ar    1  UNL1        0.0147
     12 C          62.3878   84.0357   15.8441 C.ar    1  UNL1        0.0013
     13 C          61.0106   80.1369   13.8729 C.ar    1  UNL1        0.1387
     14 C          62.0546   79.3877   13.0991 C.ar    1  UNL1        0.0369
     15 C          63.3708   80.0378   12.7914 C.ar    1  UNL1        0.0031
     16 C          63.6432   81.4374   13.2575 C.ar    1  UNL1        0.0002
     17 C          62.5991   82.1867   14.0312 C.ar    1  UNL1        0.0030
     18 C          61.2829   81.5364   14.3389 C.ar    1  UNL1        0.0369
     19 C          58.5020   80.3309   14.5204 C.3     1  UNL1        0.2525
     20 O          59.6943   79.4867   14.1805 O.3     1  UNL1       -0.4714
     21 C          64.8961   91.2604   14.4082 C.ar    1  UNL1        0.0516
     22 C          64.2910   91.3271   13.0372 C.ar    1  UNL1        0.0147
     23 C          64.7587   92.3651   12.0607 C.ar    1  UNL1        0.0010
     24 C          65.8315   93.3366   12.4550 C.ar    1  UNL1       -0.0014
     25 C          66.4367   93.2699   13.8259 C.ar    1  UNL1        0.0010
     26 C          65.9689   92.2318   14.8025 C.ar    1  UNL1        0.0147
     27 C          66.2992   94.3746   11.4784 C.2     1  UNL1        0.0158
     28 C          65.9508   95.8176   11.6934 C.2     1  UNL1        0.0487
     29 C          66.4184   96.8557   10.7169 C.2     1  UNL1        0.2355
     30 N          67.2345   96.4507    9.5252 N.2     1  UNL1       -0.0325
     31 C          67.5829   95.0077    9.3102 C.2     1  UNL1        0.3799
     32 N          68.3669   94.3138    8.2360 N.2     1  UNL1       -0.0106
     33 C          68.3837   92.8469    8.5487 C.2     1  UNL1        0.3351
     34 N          67.6102   92.6341    9.8161 N.2     1  UNL1       -0.2103
     35 C          67.1153   93.9696   10.2868 C.3     1  UNL1        0.2404
@<TRIPOS>BOND
     1    19    20    1
     2    20    13    1
     3    13    14   ar
     4    14    15   ar
     5    15    16   ar
     6    16    17   ar
     7    17     7    1
     8     7     8   ar
     9     8     9   ar
    10     9    10   ar
    11    10     1    1
    12     1     2   am
    13     2     3    2
    14     2     4   am
    15     4    21    1
    16    21    22   ar
    17    22    23   ar
    18    23    24   ar
    19    24    27    1
    20    27    28    2
    21    28    29    1
    22    29    30    2
    23    30    31    1
    24    31    32    2
    25    32    33    1
    26    33    34    2
    27    34    35    1
    28    24    25   ar
    29    25    26   ar
    30    10    11   ar
    31    11    12   ar
    32    17    18   ar
    33    18    13   ar
    34    12     7   ar
    35    26    21   ar
    36    35    27    1
    37    35    31    1
    38     1     5    1
    39     4     6    1
@<TRIPOS>MOLECULE
*****
 35 39 0 0 0
SMALL
GASTEIGER

@<TRIPOS>ATOM
      1 N          63.6964   87.6151   15.7024 N.am    1  UNL1       -0.2681
      2 C          64.1648   88.6848   14.7612 C.2     1  UNL1        0.3082
      3 O          64.3684   88.3695   13.3089 O.2     1  UNL1       -0.2522
      4 N          64.4297   90.0701   15.2721 N.am    1  UNL1       -0.2681
      5 H          63.5628   87.8221   16.6556 H       1  UNL1        0.1564
      6 H          64.2961   90.2771   16.2253 H       1  UNL1        0.1564
      7 C          62.9017   83.4595   14.1695 C.ar    1  UNL1        0.0002
      8 C          62.4296   83.8577   15.5366 C.ar    1  UNL1        0.0013
      9 C          62.6946   85.2429   16.0476 C.ar    1  UNL1        0.0147
     10 C          63.4314   86.2298   15.1915 C.ar    1  UNL1        0.0516
     11 C          63.9034   85.8317   13.8245 C.ar    1  UNL1        0.0147
     12 C          63.6386   84.4465   13.3135 C.ar    1  UNL1        0.0013
     13 C          62.7701   80.3161   11.7506 C.ar    1  UNL1        0.1387
     14 C          62.1069   79.3039   12.6370 C.ar    1  UNL1        0.0369
     15 C          61.7086   79.6769   14.0342 C.ar    1  UNL1        0.0031
     16 C          61.9735   81.0621   14.5451 C.ar    1  UNL1        0.0002
     17 C          62.6368   82.0743   13.6587 C.ar    1  UNL1        0.0030
     18 C          63.0350   81.7013   12.2614 C.ar    1  UNL1        0.0369
     19 C          62.7560   78.6177    9.7845 C.3     1  UNL1        0.2525
     20 O          63.1683   79.9430   10.3534 O.3     1  UNL1       -0.4714
     21 C          64.8982   91.1398   14.3308 C.ar    1  UNL1        0.0516
     22 C          65.9959   92.0747   14.7444 C.ar    1  UNL1        0.0147
     23 C          66.4644   93.1445   13.8031 C.ar    1  UNL1        0.0010
     24 C          65.8351   93.2795   12.4481 C.ar    1  UNL1       -0.0014
     25 C          64.7374   92.3446   12.0345 C.ar    1  UNL1        0.0010
     26 C          64.2689   91.2748   12.9759 C.ar    1  UNL1        0.0147
     27 C          66.3036   94.3493   11.5069 C.2     1  UNL1        0.0158
     28 C          65.9629   95.7854   11.7743 C.2     1  UNL1        0.0487
     29 C          66.4314   96.8551   10.8331 C.2     1  UNL1        0.2355
     30 N          67.2405   96.4889    9.6243 N.2     1  UNL1       -0.0325
     31 C          67.5812   95.0528    9.3568 C.2     1  UNL1        0.3799
     32 N          68.3573   94.3938    8.2553 N.2     1  UNL1       -0.0106
     33 C          68.3685   92.9166    8.5159 C.2     1  UNL1        0.3351
     34 N          67.5993   92.6627    9.7784 N.2     1  UNL1       -0.2103
     35 C          67.1127   93.9830   10.2981 C.3     1  UNL1        0.2404
@<TRIPOS>BOND
     1    19    20    1
     2    20    13    1
     3    13    14   ar
     4    14    15   ar
     5    15    16   ar
     6    16    17   ar
     7    17     7    1
     8     7     8   ar
     9     8     9   ar
    10     9    10   ar
    11    10     1    1
    12     1     2   am
    13     2     3    2
    14     2     4   am
    15     4    21    1
    16    21    22   ar
    17    22    23   ar
    18    23    24   ar
    19    24    27    1
    20    27    28    2
    21    28    29    1
    22    29    30    2
    23    30    31    1
    24    31    32    2
    25    32    33    1
    26    33    34    2
    27    34    35    1
    28    24    25   ar
    29    25    26   ar
    30    10    11   ar
    31    11    12   ar
    32    17    18   ar
    33    18    13   ar
    34    12     7   ar
    35    26    21   ar
    36    35    27    1
    37    35    31    1
    38     1     5    1
    39     4     6    1
@<TRIPOS>MOLECULE
*****
 35 39 0 0 0
SMALL
GASTEIGER

@<TRIPOS>ATOM
      1 N          59.2169   90.1173    6.8986 N.am    1  UNL1       -0.2681
      2 C          59.8684   90.6472    5.6558 C.2     1  UNL1        0.3082
      3 O          61.2073   90.1228    5.2289 O.2     1  UNL1       -0.2522
      4 N          59.1811   91.7018    4.8399 N.am    1  UNL1       -0.2681
      5 H          58.3381   90.4615    7.1788 H       1  UNL1        0.1564
      6 H          58.3023   92.0460    5.1202 H       1  UNL1        0.1564
      7 C          61.2787   86.9536    9.3461 C.ar    1  UNL1        0.0002
      8 C          61.4564   88.4027    9.6906 C.ar    1  UNL1        0.0013
      9 C          60.7690   89.4573    8.8747 C.ar    1  UNL1        0.0147
     10 C          59.9042   89.0627    7.7145 C.ar    1  UNL1        0.0516
     11 C          59.7266   87.6137    7.3700 C.ar    1  UNL1        0.0147
     12 C          60.4138   86.5591    8.1858 C.ar    1  UNL1        0.0013
     13 C          62.4725   84.8116   12.4665 C.ar    1  UNL1        0.1387
     14 C          63.3406   83.7901   11.7936 C.ar    1  UNL1        0.0369
     15 C          63.5215   83.8230   10.3049 C.ar    1  UNL1        0.0031
     16 C          62.8342   84.8775    9.4890 C.ar    1  UNL1        0.0002
     17 C          61.9660   85.8992   10.1620 C.ar    1  UNL1        0.0030
     18 C          61.7852   85.8662   11.6507 C.ar    1  UNL1        0.0369
     19 C          62.3678   83.4739   14.6912 C.3     1  UNL1        0.2525
     20 O          62.2917   84.7786   13.9552 O.3     1  UNL1       -0.4714
     21 C          59.8326   92.2318    3.5972 C.ar    1  UNL1        0.0516
     22 C          58.9884   92.7351    2.4640 C.ar    1  UNL1        0.0147
     23 C          59.6399   93.2651    1.2213 C.ar    1  UNL1        0.0010
     24 C          61.1358   93.2918    1.1116 C.ar    1  UNL1       -0.0014
     25 C          61.9800   92.7886    2.2447 C.ar    1  UNL1        0.0010
     26 C          61.3283   92.2585    3.4875 C.ar    1  UNL1        0.0147
     27 C          61.7873   93.8219   -0.1312 C.2     1  UNL1        0.0158
     28 C          61.2362   93.4616   -1.4790 C.2     1  UNL1        0.0487
     29 C          61.8877   93.9916   -2.7217 C.2     1  UNL1        0.2355
     30 N          63.0904   94.8819   -2.6169 N.2     1  UNL1       -0.0325
     31 C          63.6415   95.2422   -1.2691 C.2     1  UNL1        0.3799
     32 N          64.8058   96.0927   -0.8555 N.2     1  UNL1       -0.0106
     33 C          64.8738   96.0883    0.6429 C.2     1  UNL1        0.3351
     34 N          63.7516   95.2351    1.1554 N.2     1  UNL1       -0.2103
     35 C          62.9899   94.7122   -0.0263 C.3     1  UNL1        0.2404
@<TRIPOS>BOND
     1    19    20    1
     2    20    13    1
     3    13    14   ar
     4    14    15   ar
     5    15    16   ar
     6    16    17   ar
     7    17     7    1
     8     7     8   ar
     9     8     9   ar
    10     9    10   ar
    11    10     1    1
    12     1     2   am
    13     2     3    2
    14     2     4   am
    15     4    21    1
    16    21    22   ar
    17    22    23   ar
    18    23    24   ar
    19    24    27    1
    20    27    28    2
    21    28    29    1
    22    29    30    2
    23    30    31    1
    24    31    32    2
    25    32    33    1
    26    33    34    2
    27    34    35    1
    28    24    25   ar
    29    25    26   ar
    30    10    11   ar
    31    11    12   ar
    32    17    18   ar
    33    18    13   ar
    34    12     7   ar
    35    26    21   ar
    36    35    27    1
    37    35    31    1
    38     1     5    1
    39     4     6    1
@<TRIPOS>MOLECULE
*****
 35 39 0 0 0
SMALL
GASTEIGER

@<TRIPOS>ATOM
      1 N          59.1502   89.9492    6.9365 N.am    1  UNL1       -0.2681
      2 C          59.8084   90.5474    5.7287 C.2     1  UNL1        0.3082
      3 O          61.1866   90.1086    5.3311 O.2     1  UNL1       -0.2522
      4 N          59.0885   91.5843    4.9184 N.am    1  UNL1       -0.2681
      5 H          58.2456   90.2372    7.1974 H       1  UNL1        0.1564
      6 H          58.1839   91.8723    5.1794 H       1  UNL1        0.1564
      7 C          61.3099   86.8385    9.3674 C.ar    1  UNL1        0.0002
      8 C          60.4461   86.4223    8.2138 C.ar    1  UNL1        0.0013
      9 C          59.7262   87.4592    7.4035 C.ar    1  UNL1        0.0147
     10 C          59.8701   88.9122    7.7468 C.ar    1  UNL1        0.0516
     11 C          60.7338   89.3285    8.9003 C.ar    1  UNL1        0.0147
     12 C          61.4538   88.2916    9.7106 C.ar    1  UNL1        0.0013
     13 C          62.5839   84.7291   12.4782 C.ar    1  UNL1        0.1387
     14 C          63.4696   83.7277   11.7980 C.ar    1  UNL1        0.0369
     15 C          63.6354   83.7631   10.3077 C.ar    1  UNL1        0.0031
     16 C          62.9155   84.8001    9.4974 C.ar    1  UNL1        0.0002
     17 C          62.0298   85.8016   10.1776 C.ar    1  UNL1        0.0030
     18 C          61.8640   85.7661   11.6680 C.ar    1  UNL1        0.0369
     19 C          62.3881   83.3781   14.6887 C.3     1  UNL1        0.2525
     20 O          62.4181   84.6936   13.9686 O.3     1  UNL1       -0.4714
     21 C          59.7467   92.1825    3.7107 C.ar    1  UNL1        0.0516
     22 C          58.9088   92.7588    2.6079 C.ar    1  UNL1        0.0147
     23 C          59.5671   93.3570    1.4002 C.ar    1  UNL1        0.0010
     24 C          61.0633   93.3789    1.2950 C.ar    1  UNL1       -0.0014
     25 C          61.9012   92.8026    2.3976 C.ar    1  UNL1        0.0010
     26 C          61.2428   92.2044    3.6054 C.ar    1  UNL1        0.0147
     27 C          61.7215   93.9770    0.0871 C.2     1  UNL1        0.0158
     28 C          63.0448   94.6706    0.2204 C.2     1  UNL1        0.0487
     29 C          63.7031   95.2688   -0.9874 C.2     1  UNL1        0.2355
     30 N          63.0380   95.1734   -2.3286 N.2     1  UNL1       -0.0325
     31 C          61.7147   94.4798   -2.4618 C.2     1  UNL1        0.3799
     32 N          60.8263   94.2315   -3.6447 N.2     1  UNL1       -0.0106
     33 C          59.6190   93.4798   -3.1679 C.2     1  UNL1        0.3351
     34 N          59.7612   93.2636   -1.6903 N.2     1  UNL1       -0.2103
     35 C          61.0565   93.8817   -1.2540 C.3     1  UNL1        0.2404
@<TRIPOS>BOND
     1    19    20    1
     2    20    13    1
     3    13    14   ar
     4    14    15   ar
     5    15    16   ar
     6    16    17   ar
     7    17     7    1
     8     7     8   ar
     9     8     9   ar
    10     9    10   ar
    11    10     1    1
    12     1     2   am
    13     2     3    2
    14     2     4   am
    15     4    21    1
    16    21    22   ar
    17    22    23   ar
    18    23    24   ar
    19    24    27    1
    20    27    28    2
    21    28    29    1
    22    29    30    2
    23    30    31    1
    24    31    32    2
    25    32    33    1
    26    33    34    2
    27    34    35    1
    28    24    25   ar
    29    25    26   ar
    30    10    11   ar
    31    11    12   ar
    32    17    18   ar
    33    18    13   ar
    34    12     7   ar
    35    26    21   ar
    36    35    27    1
    37    35    31    1
    38     1     5    1
    39     4     6    1
@<TRIPOS>MOLECULE
*****
 35 39 0 0 0
SMALL
GASTEIGER

@<TRIPOS>ATOM
      1 N          58.6410   89.6490    6.3625 N.am    1  UNL1       -0.2681
      2 C          59.5569   88.9522    7.3245 C.2     1  UNL1        0.3082
      3 O          61.0291   89.2383    7.2996 O.2     1  UNL1       -0.2522
      4 N          59.0005   87.9692    8.3117 N.am    1  UNL1       -0.2681
      5 H          57.6747   89.4612    6.3790 H       1  UNL1        0.1564
      6 H          58.0343   87.7814    8.3281 H       1  UNL1        0.1564
      7 C          60.3097   92.5980    3.4013 C.ar    1  UNL1        0.0002
      8 C          61.2195   91.6109    4.0707 C.ar    1  UNL1        0.0013
      9 C          60.6632   90.6278    5.0578 C.ar    1  UNL1        0.0147
     10 C          59.1973   90.6320    5.3754 C.ar    1  UNL1        0.0516
     11 C          58.2875   91.6190    4.7060 C.ar    1  UNL1        0.0147
     12 C          58.8438   92.6020    3.7190 C.ar    1  UNL1        0.0013
     13 C          62.6972   94.2561    0.6994 C.ar    1  UNL1        0.1387
     14 C          61.9784   95.5469    0.4401 C.ar    1  UNL1        0.0369
     15 C          60.7035   95.8547    1.1678 C.ar    1  UNL1        0.0031
     16 C          60.1472   94.8717    2.1549 C.ar    1  UNL1        0.0002
     17 C          60.8660   93.5809    2.4142 C.ar    1  UNL1        0.0030
     18 C          62.1410   93.2731    1.6865 C.ar    1  UNL1        0.0369
     19 C          65.1743   93.4731    0.7327 C.3     1  UNL1        0.2525
     20 O          63.9723   93.9484   -0.0283 O.3     1  UNL1       -0.4714
     21 C          59.9164   87.2724    9.2737 C.ar    1  UNL1        0.0516
     22 C          60.0681   87.7898   10.6735 C.ar    1  UNL1        0.0147
     23 C          60.9840   87.0931   11.6355 C.ar    1  UNL1        0.0010
     24 C          61.7483   85.8788   11.1978 C.ar    1  UNL1       -0.0014
     25 C          61.5966   85.3614    9.7981 C.ar    1  UNL1        0.0010
     26 C          60.6807   86.0582    8.8360 C.ar    1  UNL1        0.0147
     27 C          62.6642   85.1820   12.1599 C.2     1  UNL1        0.0158
     28 C          62.8027   83.6890   12.1161 C.2     1  UNL1        0.0487
     29 C          63.7185   82.9923   13.0781 C.2     1  UNL1        0.2355
     30 N          64.4960   83.7884   14.0840 N.2     1  UNL1       -0.0325
     31 C          64.3575   85.2813   14.1278 C.2     1  UNL1        0.3799
     32 N          64.9914   86.3229   15.0015 N.2     1  UNL1       -0.0106
     33 C          64.4672   87.6634   14.5794 C.2     1  UNL1        0.3351
     34 N          63.5094   87.4504   13.4448 N.2     1  UNL1       -0.2103
     35 C          63.4416   85.9781   13.1657 C.3     1  UNL1        0.2404
@<TRIPOS>BOND
     1    19    20    1
     2    20    13    1
     3    13    14   ar
     4    14    15   ar
     5    15    16   ar
     6    16    17   ar
     7    17     7    1
     8     7     8   ar
     9     8     9   ar
    10     9    10   ar
    11    10     1    1
    12     1     2   am
    13     2     3    2
    14     2     4   am
    15     4    21    1
    16    21    22   ar
    17    22    23   ar
    18    23    24   ar
    19    24    27    1
    20    27    28    2
    21    28    29    1
    22    29    30    2
    23    30    31    1
    24    31    32    2
    25    32    33    1
    26    33    34    2
    27    34    35    1
    28    24    25   ar
    29    25    26   ar
    30    10    11   ar
    31    11    12   ar
    32    17    18   ar
    33    18    13   ar
    34    12     7   ar
    35    26    21   ar
    36    35    27    1
    37    35    31    1
    38     1     5    1
    39     4     6    1
@<TRIPOS>MOLECULE
*****
 35 39 0 0 0
SMALL
GASTEIGER

@<TRIPOS>ATOM
      1 N          58.7251   89.4696    6.5164 N.am    1  UNL1       -0.2681
      2 C          59.6490   88.8478    7.5210 C.2     1  UNL1        0.3082
      3 O          61.1010   89.2237    7.5382 O.2     1  UNL1       -0.2522
      4 N          59.1210   87.8499    8.5087 N.am    1  UNL1       -0.2681
      5 H          57.7721   89.2229    6.5052 H       1  UNL1        0.1564
      6 H          58.1680   87.6031    8.4975 H       1  UNL1        0.1564
      7 C          60.3089   92.4634    3.5533 C.ar    1  UNL1        0.0002
      8 C          61.2404   91.4778    4.1946 C.ar    1  UNL1        0.0013
      9 C          60.7124   90.4799    5.1823 C.ar    1  UNL1        0.0147
     10 C          59.2531   90.4676    5.5287 C.ar    1  UNL1        0.0516
     11 C          58.3216   91.4530    4.8875 C.ar    1  UNL1        0.0147
     12 C          58.8495   92.4509    3.8998 C.ar    1  UNL1        0.0013
     13 C          62.5969   94.1465    0.7817 C.ar    1  UNL1        0.1387
     14 C          61.8927   95.4570    0.5904 C.ar    1  UNL1        0.0369
     15 C          60.6606   95.7697    1.3867 C.ar    1  UNL1        0.0031
     16 C          60.1326   94.7718    2.3744 C.ar    1  UNL1        0.0002
     17 C          60.8368   93.4612    2.5657 C.ar    1  UNL1        0.0030
     18 C          62.0690   93.1486    1.7694 C.ar    1  UNL1        0.0369
     19 C          65.1065   93.4807    0.6878 C.3     1  UNL1        0.2525
     20 O          63.8290   93.8339   -0.0146 O.3     1  UNL1       -0.4714
     21 C          60.0450   87.2280    9.5134 C.ar    1  UNL1        0.0516
     22 C          60.8815   86.0432    9.1305 C.ar    1  UNL1        0.0147
     23 C          61.8055   85.4214   10.1352 C.ar    1  UNL1        0.0010
     24 C          61.8930   85.9842   11.5229 C.ar    1  UNL1       -0.0014
     25 C          61.0564   87.1690   11.9059 C.ar    1  UNL1        0.0010
     26 C          60.1324   87.7908   10.9011 C.ar    1  UNL1        0.0147
     27 C          62.8170   85.3623   12.5277 C.2     1  UNL1        0.0158
     28 C          63.5692   86.2300   13.4926 C.2     1  UNL1        0.0487
     29 C          64.4932   85.6082   14.4973 C.2     1  UNL1        0.2355
     30 N          64.6650   84.1185   14.5371 N.2     1  UNL1       -0.0325
     31 C          63.9127   83.2508   13.5721 C.2     1  UNL1        0.3799
     32 N          63.8795   81.7643   13.3746 N.2     1  UNL1       -0.0106
     33 C          62.9350   81.4674   12.2478 C.2     1  UNL1        0.3351
     34 N          62.3844   82.7705   11.7489 N.2     1  UNL1       -0.2103
     35 C          62.9887   83.8727   12.5674 C.3     1  UNL1        0.2404
@<TRIPOS>BOND
     1    19    20    1
     2    20    13    1
     3    13    14   ar
     4    14    15   ar
     5    15    16   ar
     6    16    17   ar
     7    17     7    1
     8     7     8   ar
     9     8     9   ar
    10     9    10   ar
    11    10     1    1
    12     1     2   am
    13     2     3    2
    14     2     4   am
    15     4    21    1
    16    21    22   ar
    17    22    23   ar
    18    23    24   ar
    19    24    27    1
    20    27    28    2
    21    28    29    1
    22    29    30    2
    23    30    31    1
    24    31    32    2
    25    32    33    1
    26    33    34    2
    27    34    35    1
    28    24    25   ar
    29    25    26   ar
    30    10    11   ar
    31    11    12   ar
    32    17    18   ar
    33    18    13   ar
    34    12     7   ar
    35    26    21   ar
    36    35    27    1
    37    35    31    1
    38     1     5    1
    39     4     6    1
@<TRIPOS>MOLECULE
*****
 35 39 0 0 0
SMALL
GASTEIGER

@<TRIPOS>ATOM
      1 N          59.0222   91.6966    4.1342 N.am    1  UNL1       -0.2681
      2 C          59.7127   90.8923    5.1953 C.2     1  UNL1        0.3082
      3 O          61.1978   90.6900    5.1356 O.2     1  UNL1       -0.2522
      4 N          58.9183   90.2902    6.3162 N.am    1  UNL1       -0.2681
      5 H          58.0474   91.8294    4.1734 H       1  UNL1        0.1564
      6 H          57.9436   90.4230    6.3554 H       1  UNL1        0.1564
      7 C          61.4054   93.5029    0.7714 C.ar    1  UNL1        0.0002
      8 C          62.0973   93.0542    2.0245 C.ar    1  UNL1        0.0013
      9 C          61.3028   92.4521    3.1454 C.ar    1  UNL1        0.0147
     10 C          59.8166   92.2987    3.0133 C.ar    1  UNL1        0.0516
     11 C          59.1247   92.7474    1.7603 C.ar    1  UNL1        0.0147
     12 C          59.9191   93.3495    0.6394 C.ar    1  UNL1        0.0013
     13 C          62.9234   94.1105   -2.8446 C.ar    1  UNL1        0.1387
     14 C          63.7887   95.3092   -2.5910 C.ar    1  UNL1        0.0369
     15 C          63.8596   95.9059   -1.2167 C.ar    1  UNL1        0.0031
     16 C          63.0651   95.3038   -0.0958 C.ar    1  UNL1        0.0002
     17 C          62.1998   94.1050   -0.3494 C.ar    1  UNL1        0.0030
     18 C          62.1289   93.5084   -1.7238 C.ar    1  UNL1        0.0369
     19 C          64.0057   92.7152   -4.7503 C.3     1  UNL1        0.2525
     20 O          62.8526   93.5139   -4.2191 O.3     1  UNL1       -0.4714
     21 C          59.6089   89.4859    7.3773 C.ar    1  UNL1        0.0516
     22 C          60.3996   90.1781    8.4477 C.ar    1  UNL1        0.0147
     23 C          61.0901   89.3738    9.5088 C.ar    1  UNL1        0.0010
     24 C          60.9901   87.8771    9.4996 C.ar    1  UNL1       -0.0014
     25 C          60.1995   87.1848    8.4293 C.ar    1  UNL1        0.0010
     26 C          59.5088   87.9893    7.3681 C.ar    1  UNL1        0.0147
     27 C          61.6807   87.0728   10.5608 C.2     1  UNL1        0.0158
     28 C          61.5727   85.5767   10.5573 C.2     1  UNL1        0.0487
     29 C          62.2632   84.7724   11.6184 C.2     1  UNL1        0.2355
     30 N          63.0620   85.4641   12.6831 N.2     1  UNL1       -0.0325
     31 C          63.1701   86.9602   12.6866 C.2     1  UNL1        0.3799
     32 N          63.8815   87.9129   13.6011 N.2     1  UNL1       -0.0106
     33 C          63.6305   89.3061   13.1051 C.2     1  UNL1        0.3351
     34 N          62.7640   89.2144   11.8841 N.2     1  UNL1       -0.2103
     35 C          62.4795   87.7645   11.6254 C.3     1  UNL1        0.2404
@<TRIPOS>BOND
     1    19    20    1
     2    20    13    1
     3    13    14   ar
     4    14    15   ar
     5    15    16   ar
     6    16    17   ar
     7    17     7    1
     8     7     8   ar
     9     8     9   ar
    10     9    10   ar
    11    10     1    1
    12     1     2   am
    13     2     3    2
    14     2     4   am
    15     4    21    1
    16    21    22   ar
    17    22    23   ar
    18    23    24   ar
    19    24    27    1
    20    27    28    2
    21    28    29    1
    22    29    30    2
    23    30    31    1
    24    31    32    2
    25    32    33    1
    26    33    34    2
    27    34    35    1
    28    24    25   ar
    29    25    26   ar
    30    10    11   ar
    31    11    12   ar
    32    17    18   ar
    33    18    13   ar
    34    12     7   ar
    35    26    21   ar
    36    35    27    1
    37    35    31    1
    38     1     5    1
    39     4     6    1
@<TRIPOS>MOLECULE
*****
 35 39 0 0 0
SMALL
GASTEIGER

@<TRIPOS>ATOM
      1 N          58.9457   88.3805    7.9247 N.am    1  UNL1       -0.2681
      2 C          59.5088   89.2976    6.8800 C.2     1  UNL1        0.3082
      3 O          60.9905   89.3578    6.6545 O.2     1  UNL1       -0.2522
      4 N          58.5901   90.1548    6.0605 N.am    1  UNL1       -0.2681
      5 H          57.9732   88.3411    8.0727 H       1  UNL1        0.1564
      6 H          57.6176   90.1153    6.2084 H       1  UNL1        0.1564
      7 C          61.7016   85.8092   10.3832 C.ar    1  UNL1        0.0002
      8 C          61.5527   85.5558    8.9122 C.ar    1  UNL1        0.0013
      9 C          60.6340   86.4129    8.0927 C.ar    1  UNL1        0.0147
     10 C          59.8644   87.5234    8.7442 C.ar    1  UNL1        0.0516
     11 C          60.0132   87.7768   10.2151 C.ar    1  UNL1        0.0147
     12 C          60.9319   86.9197   11.0346 C.ar    1  UNL1        0.0013
     13 C          63.5953   84.2666   13.5111 C.ar    1  UNL1        0.1387
     14 C          64.4575   83.2379   12.8414 C.ar    1  UNL1        0.0369
     15 C          64.4010   83.0663   11.3524 C.ar    1  UNL1        0.0031
     16 C          63.4823   83.9234   10.5329 C.ar    1  UNL1        0.0002
     17 C          62.6202   84.9522   11.2026 C.ar    1  UNL1        0.0030
     18 C          62.6767   85.1237   12.6917 C.ar    1  UNL1        0.0369
     19 C          64.0591   85.7565   15.5884 C.3     1  UNL1        0.2525
     20 O          63.6519   84.4381   15.0002 O.3     1  UNL1       -0.4714
     21 C          59.1531   91.0719    5.0157 C.ar    1  UNL1        0.0516
     22 C          58.2307   91.8404    4.1163 C.ar    1  UNL1        0.0147
     23 C          58.7938   92.7575    3.0716 C.ar    1  UNL1        0.0010
     24 C          60.2794   92.9063    2.9260 C.ar    1  UNL1       -0.0014
     25 C          61.2018   92.1379    3.8253 C.ar    1  UNL1        0.0010
     26 C          60.6386   91.2207    4.8701 C.ar    1  UNL1        0.0147
     27 C          60.8424   93.8235    1.8811 C.2     1  UNL1        0.0158
     28 C          59.9914   94.9161    1.3049 C.2     1  UNL1        0.0487
     29 C          60.5544   95.8332    0.2601 C.2     1  UNL1        0.2355
     30 N          61.9685   95.6579   -0.2086 N.2     1  UNL1       -0.0325
     31 C          62.8196   94.5654    0.3677 C.2     1  UNL1        0.3799
     32 N          64.2373   94.1527    0.1039 N.2     1  UNL1       -0.0106
     33 C          64.5505   92.9804    0.9857 C.2     1  UNL1        0.3351
     34 N          63.3263   92.6686    1.7945 N.2     1  UNL1       -0.2103
     35 C          62.2565   93.6482    1.4125 C.3     1  UNL1        0.2404
@<TRIPOS>BOND
     1    19    20    1
     2    20    13    1
     3    13    14   ar
     4    14    15   ar
     5    15    16   ar
     6    16    17   ar
     7    17     7    1
     8     7     8   ar
     9     8     9   ar
    10     9    10   ar
    11    10     1    1
    12     1     2   am
    13     2     3    2
    14     2     4   am
    15     4    21    1
    16    21    22   ar
    17    22    23   ar
    18    23    24   ar
    19    24    27    1
    20    27    28    2
    21    28    29    1
    22    29    30    2
    23    30    31    1
    24    31    32    2
    25    32    33    1
    26    33    34    2
    27    34    35    1
    28    24    25   ar
    29    25    26   ar
    30    10    11   ar
    31    11    12   ar
    32    17    18   ar
    33    18    13   ar
    34    12     7   ar
    35    26    21   ar
    36    35    27    1
    37    35    31    1
    38     1     5    1
    39     4     6    1
@<TRIPOS>MOLECULE
*****
 35 39 0 0 0
SMALL
GASTEIGER

@<TRIPOS>ATOM
      1 N          72.6641   78.8620   13.3101 N.am    1  UNL1       -0.2681
      2 C          72.4780   77.3910   13.5367 C.2     1  UNL1        0.3082
      3 O          72.2599   76.4742   12.3697 O.2     1  UNL1       -0.2522
      4 N          72.5100   76.8368   14.9302 N.am    1  UNL1       -0.2681
      5 H          72.8073   79.4638   14.0760 H       1  UNL1        0.1564
      6 H          72.6532   77.4386   15.6961 H       1  UNL1        0.1564
      7 C          72.5682   80.5246    9.1296 C.ar    1  UNL1        0.0002
      8 C          71.9065   81.2720   10.2493 C.ar    1  UNL1        0.0013
      9 C          71.9385   80.7177   11.6429 C.ar    1  UNL1        0.0147
     10 C          72.6321   79.4163   11.9166 C.ar    1  UNL1        0.0516
     11 C          73.2938   78.6689   10.7969 C.ar    1  UNL1        0.0147
     12 C          73.2618   79.2231    9.4034 C.ar    1  UNL1        0.0013
     13 C          73.0370   80.8207    5.1999 C.ar    1  UNL1        0.1387
     14 C          72.4722   82.1874    4.9493 C.ar    1  UNL1        0.0369
     15 C          71.9393   83.0000    6.0919 C.ar    1  UNL1        0.0031
     16 C          71.9714   82.4457    7.4855 C.ar    1  UNL1        0.0002
     17 C          72.5362   81.0788    7.7361 C.ar    1  UNL1        0.0030
     18 C          73.0690   80.2664    6.5933 C.ar    1  UNL1        0.0369
     19 C          73.6264   78.5129    4.1621 C.3     1  UNL1        0.2525
     20 O          73.5698   80.0082    4.0571 O.3     1  UNL1       -0.4714
     21 C          72.3239   75.3658   15.1567 C.ar    1  UNL1        0.0516
     22 C          70.9459   74.8047   15.3476 C.ar    1  UNL1        0.0147
     23 C          70.7597   73.3338   15.5742 C.ar    1  UNL1        0.0010
     24 C          71.9516   72.4236   15.6099 C.ar    1  UNL1       -0.0014
     25 C          73.3296   72.9846   15.4190 C.ar    1  UNL1        0.0010
     26 C          73.5157   74.4557   15.1924 C.ar    1  UNL1        0.0147
     27 C          71.7655   70.9526   15.8364 C.2     1  UNL1        0.0158
     28 C          72.1469   70.3422   17.1525 C.2     1  UNL1        0.0487
     29 C          71.9608   68.8713   17.3791 C.2     1  UNL1        0.2355
     30 N          71.3932   68.0104   16.2896 N.2     1  UNL1       -0.0325
     31 C          71.0117   68.6208   14.9735 C.2     1  UNL1        0.3799
     32 N          70.4331   68.0287   13.7227 N.2     1  UNL1       -0.0106
     33 C          70.2617   69.1338   12.7231 C.2     1  UNL1        0.3351
     34 N          70.7343   70.4089   13.3561 N.2     1  UNL1       -0.2103
     35 C          71.1979   70.0918   14.7470 C.3     1  UNL1        0.2404
@<TRIPOS>BOND
     1    19    20    1
     2    20    13    1
     3    13    14   ar
     4    14    15   ar
     5    15    16   ar
     6    16    17   ar
     7    17     7    1
     8     7     8   ar
     9     8     9   ar
    10     9    10   ar
    11    10     1    1
    12     1     2   am
    13     2     3    2
    14     2     4   am
    15     4    21    1
    16    21    22   ar
    17    22    23   ar
    18    23    24   ar
    19    24    27    1
    20    27    28    2
    21    28    29    1
    22    29    30    2
    23    30    31    1
    24    31    32    2
    25    32    33    1
    26    33    34    2
    27    34    35    1
    28    24    25   ar
    29    25    26   ar
    30    10    11   ar
    31    11    12   ar
    32    17    18   ar
    33    18    13   ar
    34    12     7   ar
    35    26    21   ar
    36    35    27    1
    37    35    31    1
    38     1     5    1
    39     4     6    1
