@<TRIPOS>MOLECULE
*****
 31 35 0 0 0
SMALL
GASTEIGER

@<TRIPOS>ATOM
      1 O          63.3767   87.2410   12.9361 O.2     1  UNL1       -0.2699
      2 C          62.7738   86.4314   11.8265 C.2     1  UNL1        0.2506
      3 N          61.7560   87.0497   10.9145 N.am    1  UNL1       -0.2723
      4 C          61.1531   86.2401    9.8050 C.3     1  UNL1        0.1257
      5 C          60.1352   86.8585    8.8930 C.3     1  UNL1        0.1637
      6 O          59.7203   88.2863    9.0905 O.3     1  UNL1       -0.3502
      7 C          60.3233   89.0959   10.2001 C.3     1  UNL1        0.1622
      8 C          61.3411   88.4776   11.1120 C.3     1  UNL1        0.1096
      9 C          63.1887   85.0035   11.6290 C.ar    1  UNL1        0.0729
     10 C          63.3714   84.4605   10.2428 C.ar    1  UNL1        0.0061
     11 C          63.7863   83.0326   10.0452 C.ar    1  UNL1        0.0002
     12 C          64.0185   82.1478   11.2339 C.ar    1  UNL1        0.0016
     13 C          63.8358   82.6908   12.6202 C.ar    1  UNL1        0.0211
     14 C          63.4209   84.1187   12.8178 C.ar    1  UNL1        0.1072
     15 N          63.2381   84.6617   14.2040 N.ar    1  UNL1       -0.1477
     16 N          64.3003   85.3033   15.0467 N.ar    1  UNL1       -0.1447
     17 C          63.6798   85.6966   16.3545 C.ar    1  UNL1        0.1446
     18 C          62.2341   85.2980   16.3201 C.ar    1  UNL1        0.1446
     19 N          61.9612   84.6584   14.9910 N.ar    1  UNL1       -0.1447
     20 C          61.9440   89.2872   12.2216 C.3     1  UNL1        0.0488
     21 C          62.9929   90.3149   11.9157 C.ar    1  UNL1       -0.0189
     22 C          63.0862   90.9047   10.5397 C.ar    1  UNL1       -0.0041
     23 C          64.1352   91.9324   10.2337 C.ar    1  UNL1        0.0013
     24 C          65.0908   92.3703   11.3038 C.ar    1  UNL1        0.0209
     25 C          64.9975   91.7804   12.6798 C.ar    1  UNL1        0.1026
     26 C          63.9486   90.7527   12.9857 C.ar    1  UNL1        0.0167
     27 N          65.9532   92.2182   13.7499 N.ar    1  UNL1       -0.1478
     28 N          65.6190   92.4333   15.1963 N.ar    1  UNL1       -0.1447
     29 C          66.8701   92.8658   15.9018 C.ar    1  UNL1        0.1446
     30 C          67.9775   92.9180   14.8914 C.ar    1  UNL1        0.1446
     31 N          67.4109   92.5178   13.5614 N.ar    1  UNL1       -0.1447
@<TRIPOS>BOND
     1     1     2    2
     2     2     9    1
     3     9    10   ar
     4    10    11   ar
     5    11    12   ar
     6    12    13   ar
     7    13    14   ar
     8    14    15    1
     9    15    16   ar
    10    16    17   ar
    11    17    18   ar
    12    18    19   ar
    13     2     3   am
    14     3     4    1
    15     4     5    1
    16     5     6    1
    17     6     7    1
    18     7     8    1
    19     8    20    1
    20    20    21    1
    21    21    22   ar
    22    22    23   ar
    23    23    24   ar
    24    24    25   ar
    25    25    27    1
    26    27    28   ar
    27    28    29   ar
    28    29    30   ar
    29    30    31   ar
    30    25    26   ar
    31    14     9   ar
    32    19    15   ar
    33     8     3    1
    34    26    21   ar
    35    31    27   ar
@<TRIPOS>MOLECULE
*****
 31 35 0 0 0
SMALL
GASTEIGER

@<TRIPOS>ATOM
      1 O          63.6308   87.4613   13.6899 O.2     1  UNL1       -0.2699
      2 C          63.0409   87.0736   12.3664 C.2     1  UNL1        0.2506
      3 N          62.4021   88.1150   11.4961 N.am    1  UNL1       -0.2723
      4 C          61.8122   87.7273   10.1726 C.3     1  UNL1        0.1257
      5 C          61.1734   88.7688    9.3023 C.3     1  UNL1        0.1637
      6 O          61.1245   90.1978    9.7555 O.3     1  UNL1       -0.3502
      7 C          61.7145   90.5855   11.0790 C.3     1  UNL1        0.1622
      8 C          62.3532   89.5441   11.9493 C.3     1  UNL1        0.1096
      9 C          63.0898   85.6445   11.9132 C.ar    1  UNL1        0.0729
     10 C          63.1113   85.3226   10.4483 C.ar    1  UNL1        0.0061
     11 C          63.1601   83.8936    9.9951 C.ar    1  UNL1        0.0002
     12 C          63.1875   82.7865   11.0067 C.ar    1  UNL1        0.0016
     13 C          63.1660   83.1084   12.4716 C.ar    1  UNL1        0.0211
     14 C          63.1171   84.5374   12.9249 C.ar    1  UNL1        0.1072
     15 N          63.0956   84.8593   14.3897 N.ar    1  UNL1       -0.1477
     16 N          61.8831   84.8681   15.2728 N.ar    1  UNL1       -0.1447
     17 C          62.3209   85.2432   16.6576 C.ar    1  UNL1        0.1446
     18 C          63.8040   85.4662   16.6304 C.ar    1  UNL1        0.1446
     19 N          64.2827   85.2289   15.2288 N.ar    1  UNL1       -0.1447
     20 C          62.9432   89.9318   13.2728 C.3     1  UNL1        0.0488
     21 C          64.2345   90.6932   13.3242 C.ar    1  UNL1       -0.0189
     22 C          65.1461   90.5447   14.5061 C.ar    1  UNL1       -0.0041
     23 C          66.4375   91.3061   14.5575 C.ar    1  UNL1        0.0013
     24 C          66.8172   92.2160   13.4271 C.ar    1  UNL1        0.0209
     25 C          65.9055   92.3645   12.2452 C.ar    1  UNL1        0.1026
     26 C          64.6142   91.6031   12.1938 C.ar    1  UNL1        0.0167
     27 N          66.2852   93.2744   11.1148 N.ar    1  UNL1       -0.1478
     28 N          67.4102   93.0561   10.1469 N.ar    1  UNL1       -0.1447
     29 C          67.4268   94.2092    9.1877 C.ar    1  UNL1        0.1446
     30 C          66.3121   95.1402    9.5627 C.ar    1  UNL1        0.1446
     31 N          65.6065   94.5625   10.7537 N.ar    1  UNL1       -0.1447
@<TRIPOS>BOND
     1     1     2    2
     2     2     9    1
     3     9    10   ar
     4    10    11   ar
     5    11    12   ar
     6    12    13   ar
     7    13    14   ar
     8    14    15    1
     9    15    16   ar
    10    16    17   ar
    11    17    18   ar
    12    18    19   ar
    13     2     3   am
    14     3     4    1
    15     4     5    1
    16     5     6    1
    17     6     7    1
    18     7     8    1
    19     8    20    1
    20    20    21    1
    21    21    22   ar
    22    22    23   ar
    23    23    24   ar
    24    24    25   ar
    25    25    27    1
    26    27    28   ar
    27    28    29   ar
    28    29    30   ar
    29    30    31   ar
    30    25    26   ar
    31    14     9   ar
    32    19    15   ar
    33     8     3    1
    34    26    21   ar
    35    31    27   ar
@<TRIPOS>MOLECULE
*****
 31 35 0 0 0
SMALL
GASTEIGER

@<TRIPOS>ATOM
      1 O          62.6738   90.0450   11.5131 O.2     1  UNL1       -0.2699
      2 C          62.6917   88.5454   11.5424 C.2     1  UNL1        0.2506
      3 N          63.3283   87.8254   12.6940 N.am    1  UNL1       -0.2723
      4 C          63.3463   86.3258   12.7234 C.3     1  UNL1        0.1257
      5 C          63.9829   85.6057   13.8751 C.3     1  UNL1        0.1637
      6 O          64.6016   86.3853   14.9973 O.3     1  UNL1       -0.3502
      7 C          64.5836   87.8849   14.9680 C.3     1  UNL1        0.1622
      8 C          63.9470   88.6049   13.8164 C.3     1  UNL1        0.1096
      9 C          62.0731   87.7659   10.4201 C.ar    1  UNL1        0.0729
     10 C          62.9018   86.7897    9.6389 C.ar    1  UNL1        0.0061
     11 C          62.2833   86.0102    8.5166 C.ar    1  UNL1        0.0002
     12 C          60.8359   86.2068    8.1755 C.ar    1  UNL1        0.0016
     13 C          60.0071   87.1829    8.9567 C.ar    1  UNL1        0.0211
     14 C          60.6257   87.9625   10.0790 C.ar    1  UNL1        0.1072
     15 N          59.7969   88.9386   10.8602 N.ar    1  UNL1       -0.1477
     16 N          59.0451   88.6436   12.1242 N.ar    1  UNL1       -0.1447
     17 C          58.3580   89.9038   12.5597 C.ar    1  UNL1        0.1446
     18 C          58.6851   90.9777   11.5649 C.ar    1  UNL1        0.1446
     19 N          59.5744   90.3812   10.5145 N.ar    1  UNL1       -0.1447
     20 C          63.9290   90.1045   13.7871 C.3     1  UNL1        0.0488
     21 C          65.2181   90.8690   13.7255 C.ar    1  UNL1       -0.0189
     22 C          66.1627   90.8415   14.8903 C.ar    1  UNL1       -0.0041
     23 C          67.4519   91.6059   14.8288 C.ar    1  UNL1        0.0013
     24 C          67.7964   92.3979   13.6023 C.ar    1  UNL1        0.0209
     25 C          66.8517   92.4253   12.4374 C.ar    1  UNL1        0.1026
     26 C          65.5626   91.6609   12.4990 C.ar    1  UNL1        0.0167
     27 N          67.1962   93.2172   11.2110 N.ar    1  UNL1       -0.1478
     28 N          67.9506   92.7108   10.0175 N.ar    1  UNL1       -0.1447
     29 C          68.0674   93.8352    9.0316 C.ar    1  UNL1        0.1446
     30 C          67.3851   95.0366    9.6156 C.ar    1  UNL1        0.1446
     31 N          66.8466   94.6547   10.9626 N.ar    1  UNL1       -0.1447
@<TRIPOS>BOND
     1     1     2    2
     2     2     9    1
     3     9    10   ar
     4    10    11   ar
     5    11    12   ar
     6    12    13   ar
     7    13    14   ar
     8    14    15    1
     9    15    16   ar
    10    16    17   ar
    11    17    18   ar
    12    18    19   ar
    13     2     3   am
    14     3     4    1
    15     4     5    1
    16     5     6    1
    17     6     7    1
    18     7     8    1
    19     8    20    1
    20    20    21    1
    21    21    22   ar
    22    22    23   ar
    23    23    24   ar
    24    24    25   ar
    25    25    27    1
    26    27    28   ar
    27    28    29   ar
    28    29    30   ar
    29    30    31   ar
    30    25    26   ar
    31    14     9   ar
    32    19    15   ar
    33     8     3    1
    34    26    21   ar
    35    31    27   ar
@<TRIPOS>MOLECULE
*****
 31 35 0 0 0
SMALL
GASTEIGER

@<TRIPOS>ATOM
      1 O          63.7108   88.5315   12.2986 O.2     1  UNL1       -0.2699
      2 C          63.5630   87.5066   13.3839 C.2     1  UNL1        0.2506
      3 N          63.4316   87.9416   14.8134 N.am    1  UNL1       -0.2723
      4 C          63.2838   86.9168   15.8987 C.3     1  UNL1        0.1257
      5 C          63.1523   87.3519   17.3282 C.3     1  UNL1        0.1637
      6 O          63.1686   88.8117   17.6724 O.3     1  UNL1       -0.3502
      7 C          63.3164   89.8366   16.5871 C.3     1  UNL1        0.1622
      8 C          63.4479   89.4016   15.1576 C.3     1  UNL1        0.1096
      9 C          63.5467   86.0467   13.0396 C.ar    1  UNL1        0.0729
     10 C          64.3731   85.0795   13.8344 C.ar    1  UNL1        0.0061
     11 C          64.3568   83.6196   13.4902 C.ar    1  UNL1        0.0002
     12 C          63.5142   83.1270   12.3513 C.ar    1  UNL1        0.0016
     13 C          62.6879   84.0942   11.5565 C.ar    1  UNL1        0.0211
     14 C          62.7041   85.5541   11.9007 C.ar    1  UNL1        0.1072
     15 N          61.8778   86.5213   11.1059 N.ar    1  UNL1       -0.1477
     16 N          60.6493   87.2348   11.5874 N.ar    1  UNL1       -0.1447
     17 C          60.1471   88.0993   10.4692 C.ar    1  UNL1        0.1446
     18 C          61.0651   87.9201    9.2966 C.ar    1  UNL1        0.1446
     19 N          62.1347   86.9448    9.6901 N.ar    1  UNL1       -0.1447
     20 C          63.5956   90.4264   14.0723 C.3     1  UNL1        0.0488
     21 C          64.9098   91.1206   13.8702 C.ar    1  UNL1       -0.0189
     22 C          66.0157   90.9376   14.8668 C.ar    1  UNL1       -0.0041
     23 C          67.3300   91.6318   14.6648 C.ar    1  UNL1        0.0013
     24 C          67.5383   92.5091   13.4660 C.ar    1  UNL1        0.0209
     25 C          66.4323   92.6921   12.4693 C.ar    1  UNL1        0.1026
     26 C          65.1181   91.9979   12.6714 C.ar    1  UNL1        0.0167
     27 N          66.6405   93.5693   11.2705 N.ar    1  UNL1       -0.1478
     28 N          65.8322   94.7815   10.9139 N.ar    1  UNL1       -0.1447
     29 C          66.3858   95.3498    9.6409 C.ar    1  UNL1        0.1446
     30 C          67.5363   94.4888    9.2107 C.ar    1  UNL1        0.1446
     31 N          67.6938   93.3884   10.2178 N.ar    1  UNL1       -0.1447
@<TRIPOS>BOND
     1     1     2    2
     2     2     9    1
     3     9    10   ar
     4    10    11   ar
     5    11    12   ar
     6    12    13   ar
     7    13    14   ar
     8    14    15    1
     9    15    16   ar
    10    16    17   ar
    11    17    18   ar
    12    18    19   ar
    13     2     3   am
    14     3     4    1
    15     4     5    1
    16     5     6    1
    17     6     7    1
    18     7     8    1
    19     8    20    1
    20    20    21    1
    21    21    22   ar
    22    22    23   ar
    23    23    24   ar
    24    24    25   ar
    25    25    27    1
    26    27    28   ar
    27    28    29   ar
    28    29    30   ar
    29    30    31   ar
    30    25    26   ar
    31    14     9   ar
    32    19    15   ar
    33     8     3    1
    34    26    21   ar
    35    31    27   ar
@<TRIPOS>MOLECULE
*****
 31 35 0 0 0
SMALL
GASTEIGER

@<TRIPOS>ATOM
      1 O          61.8394   85.6474   13.0971 O.2     1  UNL1       -0.2699
      2 C          62.3997   84.6073   12.1728 C.2     1  UNL1        0.2506
      3 N          62.6329   84.9354   10.7278 N.am    1  UNL1       -0.2723
      4 C          63.1931   83.8953    9.8035 C.3     1  UNL1        0.1257
      5 C          63.4263   84.2235    8.3585 C.3     1  UNL1        0.1637
      6 O          63.0992   85.5916    7.8379 O.3     1  UNL1       -0.3502
      7 C          62.5389   86.6317    8.7622 C.3     1  UNL1        0.1622
      8 C          62.3057   86.3036   10.2071 C.3     1  UNL1        0.1096
      9 C          62.7268   83.2391   12.6935 C.ar    1  UNL1        0.0729
     10 C          62.5271   82.0365   11.8195 C.ar    1  UNL1        0.0061
     11 C          62.8542   80.6683   12.3401 C.ar    1  UNL1        0.0002
     12 C          63.3809   80.5028   13.7348 C.ar    1  UNL1        0.0016
     13 C          63.5806   81.7054   14.6088 C.ar    1  UNL1        0.0211
     14 C          63.2535   83.0735   14.0882 C.ar    1  UNL1        0.1072
     15 N          63.4532   84.2761   14.9622 N.ar    1  UNL1       -0.1477
     16 N          62.5779   84.6880   16.1086 N.ar    1  UNL1       -0.1447
     17 C          63.1469   85.9444   16.6982 C.ar    1  UNL1        0.1446
     18 C          64.3739   86.3091   15.9161 C.ar    1  UNL1        0.1446
     19 N          64.5631   85.2781   14.8432 N.ar    1  UNL1       -0.1447
     20 C          61.7455   87.3437   11.1314 C.3     1  UNL1        0.0488
     21 C          62.3502   88.7158   11.1712 C.ar    1  UNL1       -0.0189
     22 C          62.2853   89.5993    9.9608 C.ar    1  UNL1       -0.0041
     23 C          62.8901   90.9715   10.0006 C.ar    1  UNL1        0.0013
     24 C          63.5597   91.4600   11.2507 C.ar    1  UNL1        0.0209
     25 C          63.6246   90.5764   12.4612 C.ar    1  UNL1        0.1026
     26 C          63.0199   89.2043   12.4214 C.ar    1  UNL1        0.0167
     27 N          64.2943   91.0649   13.7113 N.ar    1  UNL1       -0.1478
     28 N          65.7229   91.5059   13.8316 N.ar    1  UNL1       -0.1447
     29 C          65.9645   91.9118   15.2553 C.ar    1  UNL1        0.1446
     30 C          64.6851   91.7216   16.0149 C.ar    1  UNL1        0.1446
     31 N          63.6528   91.1982   15.0607 N.ar    1  UNL1       -0.1447
@<TRIPOS>BOND
     1     1     2    2
     2     2     9    1
     3     9    10   ar
     4    10    11   ar
     5    11    12   ar
     6    12    13   ar
     7    13    14   ar
     8    14    15    1
     9    15    16   ar
    10    16    17   ar
    11    17    18   ar
    12    18    19   ar
    13     2     3   am
    14     3     4    1
    15     4     5    1
    16     5     6    1
    17     6     7    1
    18     7     8    1
    19     8    20    1
    20    20    21    1
    21    21    22   ar
    22    22    23   ar
    23    23    24   ar
    24    24    25   ar
    25    25    27    1
    26    27    28   ar
    27    28    29   ar
    28    29    30   ar
    29    30    31   ar
    30    25    26   ar
    31    14     9   ar
    32    19    15   ar
    33     8     3    1
    34    26    21   ar
    35    31    27   ar
@<TRIPOS>MOLECULE
*****
 31 35 0 0 0
SMALL
GASTEIGER

@<TRIPOS>ATOM
      1 O          63.0527   89.5414   10.7120 O.2     1  UNL1       -0.2699
      2 C          62.6474   88.1115   10.9145 C.2     1  UNL1        0.2506
      3 N          63.0623   87.3834   12.1585 N.am    1  UNL1       -0.2723
      4 C          62.6570   85.9534   12.3611 C.3     1  UNL1        0.1257
      5 C          63.0720   85.2253   13.6052 C.3     1  UNL1        0.1637
      6 O          63.8922   85.9271   14.6466 O.3     1  UNL1       -0.3502
      7 C          64.2974   87.3570   14.4441 C.3     1  UNL1        0.1622
      8 C          63.8825   88.0852   13.2001 C.3     1  UNL1        0.1096
      9 C          61.8271   87.4097    9.8730 C.ar    1  UNL1        0.0729
     10 C          62.4680   86.3978    8.9699 C.ar    1  UNL1        0.0061
     11 C          61.6478   85.6960    7.9284 C.ar    1  UNL1        0.0002
     12 C          60.1868   86.0061    7.7899 C.ar    1  UNL1        0.0016
     13 C          59.5460   87.0180    8.6930 C.ar    1  UNL1        0.0211
     14 C          60.3661   87.7198    9.7345 C.ar    1  UNL1        0.1072
     15 N          59.7253   88.7316   10.6375 N.ar    1  UNL1       -0.1477
     16 N          59.1039   88.4525   11.9739 N.ar    1  UNL1       -0.1447
     17 C          58.5878   89.7486   12.5250 C.ar    1  UNL1        0.1446
     18 C          58.8903   90.8289   11.5292 C.ar    1  UNL1        0.1446
     19 N          59.5932   90.2003   10.3627 N.ar    1  UNL1       -0.1447
     20 C          64.2878   89.5151   12.9975 C.3     1  UNL1        0.0488
     21 C          64.5806   90.3867   14.1826 C.ar    1  UNL1       -0.0189
     22 C          63.5669   90.5267   15.2793 C.ar    1  UNL1       -0.0041
     23 C          63.8596   91.3984   16.4645 C.ar    1  UNL1        0.0013
     24 C          65.1661   92.1301   16.5529 C.ar    1  UNL1        0.0209
     25 C          66.1798   91.9901   15.4561 C.ar    1  UNL1        0.1026
     26 C          65.8870   91.1184   14.2710 C.ar    1  UNL1        0.0167
     27 N          67.4863   92.7218   15.5445 N.ar    1  UNL1       -0.1478
     28 N          67.7788   93.9006   16.4246 N.ar    1  UNL1       -0.1447
     29 C          69.2029   94.3105   16.1924 C.ar    1  UNL1        0.1446
     30 C          69.7905   93.3849   15.1686 C.ar    1  UNL1        0.1446
     31 N          68.7296   92.4030   14.7682 N.ar    1  UNL1       -0.1447
@<TRIPOS>BOND
     1     1     2    2
     2     2     9    1
     3     9    10   ar
     4    10    11   ar
     5    11    12   ar
     6    12    13   ar
     7    13    14   ar
     8    14    15    1
     9    15    16   ar
    10    16    17   ar
    11    17    18   ar
    12    18    19   ar
    13     2     3   am
    14     3     4    1
    15     4     5    1
    16     5     6    1
    17     6     7    1
    18     7     8    1
    19     8    20    1
    20    20    21    1
    21    21    22   ar
    22    22    23   ar
    23    23    24   ar
    24    24    25   ar
    25    25    27    1
    26    27    28   ar
    27    28    29   ar
    28    29    30   ar
    29    30    31   ar
    30    25    26   ar
    31    14     9   ar
    32    19    15   ar
    33     8     3    1
    34    26    21   ar
    35    31    27   ar
@<TRIPOS>MOLECULE
*****
 31 35 0 0 0
SMALL
GASTEIGER

@<TRIPOS>ATOM
      1 O          64.1883   92.0196   12.0299 O.2     1  UNL1       -0.2699
      2 C          64.7247   91.2477   13.1989 C.2     1  UNL1        0.2506
      3 N          64.3486   89.8074   13.3828 N.am    1  UNL1       -0.2723
      4 C          64.8850   89.0355   14.5518 C.3     1  UNL1        0.1257
      5 C          64.5088   87.5951   14.7357 C.3     1  UNL1        0.1637
      6 O          63.5964   86.9266   13.7505 O.3     1  UNL1       -0.3502
      7 C          63.0601   87.6984   12.5815 C.3     1  UNL1        0.1622
      8 C          63.4362   89.1388   12.3976 C.3     1  UNL1        0.1096
      9 C          65.6371   91.9163   14.1841 C.ar    1  UNL1        0.0729
     10 C          65.3133   91.8834   15.6484 C.ar    1  UNL1        0.0061
     11 C          66.2257   92.5519   16.6335 C.ar    1  UNL1        0.0002
     12 C          67.4619   93.2534   16.1544 C.ar    1  UNL1        0.0016
     13 C          67.7857   93.2864   14.6901 C.ar    1  UNL1        0.0211
     14 C          66.8734   92.6178   13.7050 C.ar    1  UNL1        0.1072
     15 N          67.1972   92.6508   12.2407 N.ar    1  UNL1       -0.1477
     16 N          66.6533   93.6259   11.2392 N.ar    1  UNL1       -0.1447
     17 C          67.2417   93.2922    9.9004 C.ar    1  UNL1        0.1446
     18 C          68.1494   92.1108   10.0745 C.ar    1  UNL1        0.1446
     19 N          68.1219   91.7144   11.5210 N.ar    1  UNL1       -0.1447
     20 C          62.8998   89.9106   11.2286 C.3     1  UNL1        0.0488
     21 C          61.8574   89.2987   10.3405 C.ar    1  UNL1       -0.0189
     22 C          60.5004   89.9287   10.2326 C.ar    1  UNL1       -0.0041
     23 C          59.4578   89.3168    9.3445 C.ar    1  UNL1        0.0013
     24 C          59.7724   88.0748    8.5643 C.ar    1  UNL1        0.0209
     25 C          61.1294   87.4448    8.6722 C.ar    1  UNL1        0.1026
     26 C          62.1719   88.0568    9.5603 C.ar    1  UNL1        0.0167
     27 N          61.4439   86.2029    7.8920 N.ar    1  UNL1       -0.1478
     28 N          62.7527   85.4700    7.8911 N.ar    1  UNL1       -0.1447
     29 C          62.6225   84.2900    6.9743 C.ar    1  UNL1        0.1446
     30 C          61.2333   84.2935    6.4086 C.ar    1  UNL1        0.1446
     31 N          60.5048   85.4758    6.9757 N.ar    1  UNL1       -0.1447
@<TRIPOS>BOND
     1     1     2    2
     2     2     9    1
     3     9    10   ar
     4    10    11   ar
     5    11    12   ar
     6    12    13   ar
     7    13    14   ar
     8    14    15    1
     9    15    16   ar
    10    16    17   ar
    11    17    18   ar
    12    18    19   ar
    13     2     3   am
    14     3     4    1
    15     4     5    1
    16     5     6    1
    17     6     7    1
    18     7     8    1
    19     8    20    1
    20    20    21    1
    21    21    22   ar
    22    22    23   ar
    23    23    24   ar
    24    24    25   ar
    25    25    27    1
    26    27    28   ar
    27    28    29   ar
    28    29    30   ar
    29    30    31   ar
    30    25    26   ar
    31    14     9   ar
    32    19    15   ar
    33     8     3    1
    34    26    21   ar
    35    31    27   ar
@<TRIPOS>MOLECULE
*****
 31 35 0 0 0
SMALL
GASTEIGER

@<TRIPOS>ATOM
      1 O          65.1006   85.5752   13.3267 O.2     1  UNL1       -0.2699
      2 C          64.0307   84.8301   14.0685 C.2     1  UNL1        0.2506
      3 N          63.3763   85.4523   15.2662 N.am    1  UNL1       -0.2723
      4 C          62.3064   84.7072   16.0080 C.3     1  UNL1        0.1257
      5 C          61.6520   85.3295   17.2058 C.3     1  UNL1        0.1637
      6 O          62.0675   86.6967   17.6617 O.3     1  UNL1       -0.3502
      7 C          63.1374   87.4418   16.9199 C.3     1  UNL1        0.1622
      8 C          63.7918   86.8196   15.7222 C.3     1  UNL1        0.1096
      9 C          63.6152   83.4628   13.6124 C.ar    1  UNL1        0.0729
     10 C          63.9673   82.2588   14.4349 C.ar    1  UNL1        0.0061
     11 C          63.5519   80.8915   13.9789 C.ar    1  UNL1        0.0002
     12 C          62.7844   80.7282   12.7006 C.ar    1  UNL1        0.0016
     13 C          62.4323   81.9323   11.8782 C.ar    1  UNL1        0.0211
     14 C          62.8477   83.2995   12.3341 C.ar    1  UNL1        0.1072
     15 N          62.4956   84.5036   11.5117 N.ar    1  UNL1       -0.1477
     16 N          61.6584   85.6642   11.9612 N.ar    1  UNL1       -0.1447
     17 C          61.5643   86.6363   10.8227 C.ar    1  UNL1        0.1446
     18 C          62.3433   86.0765    9.6695 C.ar    1  UNL1        0.1446
     19 N          62.9189   84.7584   10.0954 N.ar    1  UNL1       -0.1447
     20 C          64.8616   87.5647   14.9804 C.3     1  UNL1        0.0488
     21 C          64.5219   88.8225   14.2372 C.ar    1  UNL1       -0.0189
     22 C          65.2537   90.0956   14.5436 C.ar    1  UNL1       -0.0041
     23 C          64.9139   91.3535   13.8003 C.ar    1  UNL1        0.0013
     24 C          63.8424   91.3383   12.7508 C.ar    1  UNL1        0.0209
     25 C          63.1106   90.0652   12.4444 C.ar    1  UNL1        0.1026
     26 C          63.4503   88.8074   13.1876 C.ar    1  UNL1        0.0167
     27 N          62.0391   90.0500   11.3949 N.ar    1  UNL1       -0.1478
     28 N          60.5605   90.0937   11.6437 N.ar    1  UNL1       -0.1447
     29 C          59.8656   90.0592   10.3148 C.ar    1  UNL1        0.1446
     30 C          60.9147   89.9941    9.2447 C.ar    1  UNL1        0.1446
     31 N          62.2580   89.9885    9.9121 N.ar    1  UNL1       -0.1447
@<TRIPOS>BOND
     1     1     2    2
     2     2     9    1
     3     9    10   ar
     4    10    11   ar
     5    11    12   ar
     6    12    13   ar
     7    13    14   ar
     8    14    15    1
     9    15    16   ar
    10    16    17   ar
    11    17    18   ar
    12    18    19   ar
    13     2     3   am
    14     3     4    1
    15     4     5    1
    16     5     6    1
    17     6     7    1
    18     7     8    1
    19     8    20    1
    20    20    21    1
    21    21    22   ar
    22    22    23   ar
    23    23    24   ar
    24    24    25   ar
    25    25    27    1
    26    27    28   ar
    27    28    29   ar
    28    29    30   ar
    29    30    31   ar
    30    25    26   ar
    31    14     9   ar
    32    19    15   ar
    33     8     3    1
    34    26    21   ar
    35    31    27   ar
