@<TRIPOS>MOLECULE
*****
 45 50 0 0 0
SMALL
GASTEIGER

@<TRIPOS>ATOM
      1 C          63.3340   85.1586   14.5411 C.3     1  UNL1        0.0901
      2 C          62.8623   86.2736   13.6556 C.3     1  UNL1        0.0357
      3 C          62.6601   86.2660   12.1692 C.ar    1  UNL1       -0.0232
      4 C          62.1747   87.5965   11.6753 C.ar    1  UNL1        0.0081
      5 C          61.9089   87.8024   10.2135 C.ar    1  UNL1        0.0706
      6 CL         61.4235   89.1329    9.7196 Cl      1  UNL1       -0.0810
      7 C          62.1286   86.6777    9.2456 C.ar    1  UNL1        0.0624
      8 C          62.6141   85.3471    9.7395 C.ar    1  UNL1        0.0581
      9 C          62.8798   85.1412   11.2013 C.ar    1  UNL1       -0.0035
     10 C          63.3559   83.7465   11.4808 C.3     1  UNL1        0.1200
     11 N          63.7299   83.1320   12.7970 N.am    1  UNL1       -0.2677
     12 C          63.7201   83.7605   14.1589 C.2     1  UNL1        0.2264
     13 O          64.1538   82.8734   15.2882 O.2     1  UNL1       -0.2748
     14 C          62.7388   84.4315    8.5580 C.3     1  UNL1        0.3501
     15 F          63.1931   83.4317    9.5798 F       1  UNL1       -0.1897
     16 F          62.9585   83.3068    7.5901 F       1  UNL1       -0.1897
     17 C          62.3305   85.1961    7.3339 C.2     1  UNL1        0.2916
     18 O          62.3039   84.6657    5.9310 O.2     1  UNL1       -0.2685
     19 N          61.9533   86.5844    7.7588 N.am    1  UNL1       -0.2786
     20 H          61.6449   87.3073    7.1659 H       1  UNL1        0.1550
     21 C          63.4326   85.4848   16.0018 C.3     1  UNL1        0.0947
     22 O          61.8474   86.8821   17.5134 O.2     1  UNL1       -0.2749
     23 C          62.9578   86.8150   16.5070 C.2     1  UNL1        0.2261
     24 N          63.5932   88.0779   16.0059 N.am    1  UNL1       -0.2794
     25 C          63.1183   89.4081   16.5111 C.3     1  UNL1        0.0953
     26 C          63.7537   90.6710   16.0100 C.3     1  UNL1        0.0442
     27 C          64.8640   90.6039   15.0037 C.3     1  UNL1        0.0934
     28 C          65.3389   89.2737   14.4984 C.3     1  UNL1        0.0442
     29 C          64.7034   88.0108   14.9996 C.3     1  UNL1        0.0953
     30 N          65.4995   91.8668   14.5025 N.ar    1  UNL1       -0.2788
     31 C          66.2865   92.8442   15.3243 C.ar    1  UNL1        0.3515
     32 O          66.5762   92.7302   16.7916 O.2     1  UNL1       -0.2444
     33 N          66.7329   93.9556   14.4212 N.ar    1  UNL1       -0.1736
     34 C          66.2218   93.6650   13.0411 C.ar    1  UNL1        0.1613
     35 N          66.3520   94.4092   11.7453 N.ar    1  UNL1       -0.3361
     36 C          65.7199   93.8624   10.4996 C.ar    1  UNL1        0.0736
     37 C          64.9576   92.5715   10.5500 C.ar    1  UNL1        0.0201
     38 C          64.8274   91.8274   11.8459 C.ar    1  UNL1        0.0219
     39 C          65.4595   92.3741   13.0915 C.ar    1  UNL1        0.0979
     40 H          66.8523   95.2564   11.7123 H       1  UNL1        0.1674
     41 C          64.1720   81.6996   12.7443 C.3     1  UNL1        0.1976
     42 C          63.1518   80.6005   12.7082 C.3     1  UNL1        0.4157
     43 F          62.1316   79.5015   12.6720 F       1  UNL1       -0.1682
     44 F          63.3506   80.3679   14.1766 F       1  UNL1       -0.1682
     45 F          62.9531   80.8333   11.2397 F       1  UNL1       -0.1682
@<TRIPOS>BOND
     1    22    23    2
     2    23    21    1
     3     1    21    1
     4     1     2    1
     5     2     3    1
     6     3     4   ar
     7     4     5   ar
     8     5     6    1
     9     5     7   ar
    10     7     8   ar
    11     8     9   ar
    12     9    10    1
    13    10    11    1
    14    11    41    1
    15    41    42    1
    16    42    43    1
    17    42    44    1
    18    42    45    1
    19    11    12   am
    20    12    13    2
    21     8    14    1
    22    14    15    1
    23    14    16    1
    24    14    17    1
    25    17    18    2
    26    17    19   am
    27    23    24   am
    28    24    25    1
    29    25    26    1
    30    26    27    1
    31    27    30    1
    32    30    31   ar
    33    31    32    2
    34    31    33   ar
    35    33    34   ar
    36    34    35   ar
    37    35    36   ar
    38    36    37   ar
    39    37    38   ar
    40    38    39   ar
    41    27    28    1
    42    28    29    1
    43    12     1    1
    44    29    24    1
    45     9     3   ar
    46    39    30   ar
    47    19     7    1
    48    39    34    1
    49    19    20    1
    50    35    40    1
@<TRIPOS>MOLECULE
*****
 45 50 0 0 0
SMALL
GASTEIGER

@<TRIPOS>ATOM
      1 C          61.8820   90.6435   11.3183 C.3     1  UNL1        0.0901
      2 C          63.0474   91.3357   10.6761 C.3     1  UNL1        0.0357
      3 C          64.3786   91.6783   11.2767 C.ar    1  UNL1       -0.0232
      4 C          65.2644   92.3733   10.2857 C.ar    1  UNL1        0.0081
      5 C          66.6446   92.8033   10.6857 C.ar    1  UNL1        0.0706
      6 CL         67.5305   93.4984    9.6947 Cl      1  UNL1       -0.0810
      7 C          67.1390   92.5383   12.0769 C.ar    1  UNL1        0.0624
      8 C          66.2532   91.8433   13.0680 C.ar    1  UNL1        0.0581
      9 C          64.8730   91.4133   12.6679 C.ar    1  UNL1       -0.0035
     10 C          64.1583   90.7402   13.8020 C.3     1  UNL1        0.1200
     11 N          62.7728   90.1659   13.8251 N.am    1  UNL1       -0.2677
     12 C          61.7598   90.1229   12.7197 C.2     1  UNL1        0.2264
     13 O          60.4514   89.4734   13.0609 O.2     1  UNL1       -0.2748
     14 C          67.0088   91.7191   14.3578 C.3     1  UNL1        0.3501
     15 F          65.7593   91.0454   14.8425 F       1  UNL1       -0.1897
     16 F          67.5032   91.4540   15.7490 F       1  UNL1       -0.1897
     17 C          68.3616   92.3373   14.1639 C.2     1  UNL1        0.2916
     18 O          69.4439   92.4326   15.1980 O.2     1  UNL1       -0.2685
     19 N          68.4421   92.8437   12.7542 N.am    1  UNL1       -0.2786
     20 H          69.2146   93.2968   12.3453 H       1  UNL1        0.1550
     21 C          60.6797   90.4458   10.4434 C.3     1  UNL1        0.0947
     22 O          59.9651   89.4555    8.1502 O.2     1  UNL1       -0.2749
     23 C          60.6314   89.2934    9.4844 C.2     1  UNL1        0.2261
     24 N          61.2493   87.9791    9.8594 N.am    1  UNL1       -0.2794
     25 C          61.2009   86.8267    8.9004 C.3     1  UNL1        0.0953
     26 C          61.8188   85.5124    9.2754 C.3     1  UNL1        0.0442
     27 C          62.4850   85.3503   10.6095 C.3     1  UNL1        0.0934
     28 C          62.5334   86.5027   11.5686 C.3     1  UNL1        0.0442
     29 C          61.9155   87.8170   11.1935 C.3     1  UNL1        0.0953
     30 N          63.1029   84.0360   10.9846 N.ar    1  UNL1       -0.2788
     31 C          63.9213   83.1578   10.0853 C.ar    1  UNL1        0.3515
     32 O          64.2655   83.4397    8.6527 O.2     1  UNL1       -0.2444
     33 N          64.3351   81.9481   10.8698 N.ar    1  UNL1       -0.1736
     34 C          63.7724   82.0787   12.2542 C.ar    1  UNL1        0.1613
     35 N          63.8550   81.1894   13.4593 N.ar    1  UNL1       -0.3361
     36 C          63.1762   81.5905   14.7353 C.ar    1  UNL1        0.0736
     37 C          62.4147   82.8808   14.8062 C.ar    1  UNL1        0.0201
     38 C          62.3320   83.7702   13.6011 C.ar    1  UNL1        0.0219
     39 C          63.0109   83.3691   12.3251 C.ar    1  UNL1        0.0979
     40 H          64.3549   80.3425   13.4127 H       1  UNL1        0.1674
     41 C          62.3436   89.5537   15.1255 C.3     1  UNL1        0.1976
     42 C          63.1852   88.4914   15.7683 C.3     1  UNL1        0.4157
     43 F          64.0268   87.4290   16.4110 F       1  UNL1       -0.1682
     44 F          62.7999   89.0061   17.1234 F       1  UNL1       -0.1682
     45 F          63.5705   87.9766   14.4130 F       1  UNL1       -0.1682
@<TRIPOS>BOND
     1    22    23    2
     2    23    21    1
     3     1    21    1
     4     1     2    1
     5     2     3    1
     6     3     4   ar
     7     4     5   ar
     8     5     6    1
     9     5     7   ar
    10     7     8   ar
    11     8     9   ar
    12     9    10    1
    13    10    11    1
    14    11    41    1
    15    41    42    1
    16    42    43    1
    17    42    44    1
    18    42    45    1
    19    11    12   am
    20    12    13    2
    21     8    14    1
    22    14    15    1
    23    14    16    1
    24    14    17    1
    25    17    18    2
    26    17    19   am
    27    23    24   am
    28    24    25    1
    29    25    26    1
    30    26    27    1
    31    27    30    1
    32    30    31   ar
    33    31    32    2
    34    31    33   ar
    35    33    34   ar
    36    34    35   ar
    37    35    36   ar
    38    36    37   ar
    39    37    38   ar
    40    38    39   ar
    41    27    28    1
    42    28    29    1
    43    12     1    1
    44    29    24    1
    45     9     3   ar
    46    39    30   ar
    47    19     7    1
    48    39    34    1
    49    19    20    1
    50    35    40    1
@<TRIPOS>MOLECULE
*****
 45 50 0 0 0
SMALL
GASTEIGER

@<TRIPOS>ATOM
      1 C          63.2174   84.7194   14.6976 C.3     1  UNL1        0.0901
      2 C          62.7593   85.8847   13.8718 C.3     1  UNL1        0.0357
      3 C          62.6047   85.9725   12.3823 C.ar    1  UNL1       -0.0232
      4 C          62.1175   87.3270   11.9607 C.ar    1  UNL1        0.0081
      5 C          61.8957   87.6254   10.5076 C.ar    1  UNL1        0.0706
      6 CL         61.4085   88.9800   10.0860 Cl      1  UNL1       -0.0810
      7 C          62.1611   86.5693    9.4760 C.ar    1  UNL1        0.0624
      8 C          62.6483   85.2147    9.8976 C.ar    1  UNL1        0.0581
      9 C          62.8701   84.9163   11.3507 C.ar    1  UNL1       -0.0035
     10 C          63.3556   83.5116   11.5539 C.3     1  UNL1        0.1200
     11 N          63.6957   82.8162   12.8387 N.am    1  UNL1       -0.2677
     12 C          63.6341   83.3537   14.2377 C.2     1  UNL1        0.2264
     13 O          64.0435   82.3994   15.3202 O.2     1  UNL1       -0.2748
     14 C          62.8228   84.3801    8.6635 C.3     1  UNL1        0.3501
     15 F          63.2576   83.3205    9.6322 F       1  UNL1       -0.1897
     16 F          63.0882   83.3239    7.6320 F       1  UNL1       -0.1897
     17 C          62.4435   85.2188    7.4793 C.2     1  UNL1        0.2916
     18 O          62.4686   84.7814    6.0447 O.2     1  UNL1       -0.2685
     19 N          62.0345   86.5719    7.9814 N.am    1  UNL1       -0.2786
     20 H          61.7355   87.3287    7.4272 H       1  UNL1        0.1550
     21 C          63.2651   84.9500   16.1789 C.3     1  UNL1        0.0947
     22 O          61.9612   86.3745   17.9169 O.2     1  UNL1       -0.2749
     23 C          62.8899   86.2887   16.7420 C.2     1  UNL1        0.2261
     24 N          63.4432   87.5415   16.1303 N.am    1  UNL1       -0.2794
     25 C          63.0679   88.8802   16.6934 C.3     1  UNL1        0.0953
     26 C          63.6212   90.1330   16.0817 C.3     1  UNL1        0.0442
     27 C          64.5497   90.0473   14.9069 C.3     1  UNL1        0.0934
     28 C          64.9251   88.7086   14.3437 C.3     1  UNL1        0.0442
     29 C          64.3717   87.4558   14.9555 C.3     1  UNL1        0.0953
     30 N          65.1031   91.3001   14.2951 N.ar    1  UNL1       -0.2788
     31 C          64.6450   91.9328   13.0146 C.ar    1  UNL1        0.3515
     32 O          63.5531   91.4238   12.1209 O.2     1  UNL1       -0.2444
     33 N          65.4706   93.1640   12.7845 N.ar    1  UNL1       -0.1736
     34 C          66.4389   93.2921   13.9230 C.ar    1  UNL1        0.1613
     35 N          67.4980   94.3089   14.2301 N.ar    1  UNL1       -0.3361
     36 C          68.3301   94.1737   15.4709 C.ar    1  UNL1        0.0736
     37 C          68.1030   93.0218   16.4044 C.ar    1  UNL1        0.0201
     38 C          67.0438   92.0050   16.0973 C.ar    1  UNL1        0.0219
     39 C          66.2117   92.1402   14.8565 C.ar    1  UNL1        0.0979
     40 H          67.6471   95.0649   13.6174 H       1  UNL1        0.1674
     41 C          64.1584   81.3955   12.7071 C.3     1  UNL1        0.1976
     42 C          63.1577   80.2965   12.5045 C.3     1  UNL1        0.4157
     43 F          62.1571   79.1975   12.3019 F       1  UNL1       -0.1682
     44 F          63.1525   80.5731   11.0302 F       1  UNL1       -0.1682
     45 F          63.1630   80.0198   13.9788 F       1  UNL1       -0.1682
@<TRIPOS>BOND
     1    22    23    2
     2    23    21    1
     3     1    21    1
     4     1     2    1
     5     2     3    1
     6     3     4   ar
     7     4     5   ar
     8     5     6    1
     9     5     7   ar
    10     7     8   ar
    11     8     9   ar
    12     9    10    1
    13    10    11    1
    14    11    41    1
    15    41    42    1
    16    42    43    1
    17    42    44    1
    18    42    45    1
    19    11    12   am
    20    12    13    2
    21     8    14    1
    22    14    15    1
    23    14    16    1
    24    14    17    1
    25    17    18    2
    26    17    19   am
    27    23    24   am
    28    24    25    1
    29    25    26    1
    30    26    27    1
    31    27    30    1
    32    30    31   ar
    33    31    32    2
    34    31    33   ar
    35    33    34   ar
    36    34    35   ar
    37    35    36   ar
    38    36    37   ar
    39    37    38   ar
    40    38    39   ar
    41    27    28    1
    42    28    29    1
    43    12     1    1
    44    29    24    1
    45     9     3   ar
    46    39    30   ar
    47    19     7    1
    48    39    34    1
    49    19    20    1
    50    35    40    1
