@<TRIPOS>MOLECULE
*****
 32 36 0 0 0
SMALL
GASTEIGER

@<TRIPOS>ATOM
      1 C          62.8667   90.5367   11.3057 C.3     1  UNL1        0.1095
      2 C          63.0290   91.4227   10.1063 C.3     1  UNL1        0.1597
      3 O          64.1644   92.4011   10.0446 O.3     1  UNL1       -0.3533
      4 C          65.1375   92.4934   11.1824 C.3     1  UNL1        0.1315
      5 C          66.3454   93.3551   11.4026 C.3     1  UNL1        0.0311
      6 C          66.9296   93.0016   12.7382 C.3     1  UNL1        0.0041
      7 C          66.0828   91.9215   13.3434 C.3     1  UNL1        0.0203
      8 C          64.9752   91.6074   12.3819 C.3     1  UNL1        0.1066
      9 N          63.8398   90.6291   12.4435 N.3     1  UNL1       -0.1534
     10 C          61.7314   89.5584   11.3675 C.3     1  UNL1        0.0261
     11 C          60.4316   88.9315   11.7767 C.3     1  UNL1        0.0020
     12 C          60.8635   90.2306   12.3897 C.3     1  UNL1        0.0020
     13 C          62.2049   88.5463   10.3667 C.3     1  UNL1        0.0867
     14 O          59.9923   88.7730    9.0239 O.2     1  UNL1       -0.2749
     15 C          61.2656   88.0353    9.3148 C.2     1  UNL1        0.2257
     16 N          61.5996   86.7866    8.5537 N.am    1  UNL1       -0.2770
     17 C          62.8293   85.9468    8.7335 C.3     1  UNL1        0.0960
     18 C          62.7521   84.7996    7.7701 C.3     1  UNL1        0.0525
     19 C          61.4748   84.9305    6.9949 C.3     1  UNL1        0.1320
     20 O          60.9940   83.9973    5.9234 O.3     1  UNL1       -0.3827
     21 C          60.7624   86.1585    7.4791 C.3     1  UNL1        0.1225
     22 H          60.1406   84.3082    5.5829 H       1  UNL1        0.2104
     23 S          63.6775   89.7431   13.6430 S.O2    1  UNL1        0.0634
     24 O          63.3440   90.9406   14.4824 O.2     1  UNL1       -0.1528
     25 O          63.9334   88.5044   13.1711 O.2     1  UNL1       -0.1528
     26 C          63.5152   88.8571   14.8425 C.ar    1  UNL1        0.1223
     27 C          63.9139   87.4130   14.7677 C.ar    1  UNL1        0.0208
     28 C          63.7516   86.5270   15.9671 C.ar    1  UNL1        0.0128
     29 C          63.1907   87.0852   17.2414 C.ar    1  UNL1        0.0578
     30 CL         63.0284   86.1992   18.4408 Cl      1  UNL1       -0.0822
     31 C          62.7920   88.5293   17.3162 C.ar    1  UNL1        0.0128
     32 C          62.9543   89.4153   16.1167 C.ar    1  UNL1        0.0208
@<TRIPOS>BOND
     1    14    15    2
     2    15    13    1
     3    13    10    1
     4     1    10    1
     5     1     2    1
     6     2     3    1
     7     3     4    1
     8     4     5    1
     9     5     6    1
    10     6     7    1
    11     8     7    1
    12     8     9    1
    13     9    23    1
    14    23    24    2
    15    23    25    2
    16    23    26    1
    17    26    27   ar
    18    27    28   ar
    19    28    29   ar
    20    29    30    1
    21    29    31   ar
    22    31    32   ar
    23    10    11    1
    24    11    12    1
    25    15    16   am
    26    16    17    1
    27    17    18    1
    28    18    19    1
    29    19    20    1
    30    19    21    1
    31    12    10    1
    32    21    16    1
    33     9     1    1
    34    32    26   ar
    35     8     4    1
    36    20    22    1
@<TRIPOS>MOLECULE
*****
 32 36 0 0 0
SMALL
GASTEIGER

@<TRIPOS>ATOM
      1 C          63.4400   88.2741   13.1748 C.3     1  UNL1        0.1095
      2 C          64.2703   87.8967   14.3656 C.3     1  UNL1        0.1597
      3 O          64.5437   86.4518   14.6618 O.3     1  UNL1       -0.3533
      4 C          63.9867   85.3844   13.7672 C.3     1  UNL1        0.1315
      5 C          64.0875   83.8883   13.8066 C.3     1  UNL1        0.0311
      6 C          63.3195   83.3411   12.6401 C.3     1  UNL1        0.0041
      7 C          62.7440   84.4990   11.8798 C.3     1  UNL1        0.0203
      8 C          63.1563   85.7618   12.5763 C.3     1  UNL1        0.1066
      9 N          62.8830   87.2067   12.2801 N.3     1  UNL1       -0.1534
     10 C          63.1666   89.7189   12.8785 C.3     1  UNL1        0.0261
     11 C          62.4097   90.9993   12.6846 C.3     1  UNL1        0.0020
     12 C          61.6792   89.7473   13.0705 C.3     1  UNL1        0.0020
     13 C          64.5591   90.1923   12.5836 C.3     1  UNL1        0.0867
     14 O          65.0063   91.8242   14.5552 O.2     1  UNL1       -0.2749
     15 C          65.0185   91.5295   13.0845 C.2     1  UNL1        0.2257
     16 N          65.4901   92.5721   12.1146 N.am    1  UNL1       -0.2770
     17 C          65.5583   92.4227   10.6236 C.3     1  UNL1        0.0960
     18 C          66.0866   93.7054   10.0529 C.3     1  UNL1        0.0525
     19 C          66.3448   94.6474   11.1911 C.3     1  UNL1        0.1320
     20 O          66.8781   96.0447   11.0756 O.3     1  UNL1       -0.3827
     21 C          65.9761   93.9471   12.4653 C.3     1  UNL1        0.1225
     22 H          66.9514   96.4370   11.9597 H       1  UNL1        0.2104
     23 S          62.0527   87.5841   11.0893 S.O2    1  UNL1        0.0634
     24 O          60.8377   87.0073   11.7536 O.2     1  UNL1       -0.1528
     25 O          62.9327   88.1699   10.2499 O.2     1  UNL1       -0.1528
     26 C          61.2222   87.9615    9.8985 C.ar    1  UNL1        0.1223
     27 C          61.0183   89.4071    9.5542 C.ar    1  UNL1        0.0208
     28 C          60.1879   89.7846    8.3634 C.ar    1  UNL1        0.0128
     29 C          59.5615   88.7164    7.5170 C.ar    1  UNL1        0.0578
     30 CL         58.7311   89.0939    6.3262 Cl      1  UNL1       -0.0822
     31 C          59.7654   87.2708    7.8612 C.ar    1  UNL1        0.0128
     32 C          60.5958   86.8933    9.0520 C.ar    1  UNL1        0.0208
@<TRIPOS>BOND
     1    14    15    2
     2    15    13    1
     3    13    10    1
     4     1    10    1
     5     1     2    1
     6     2     3    1
     7     3     4    1
     8     4     5    1
     9     5     6    1
    10     6     7    1
    11     8     7    1
    12     8     9    1
    13     9    23    1
    14    23    24    2
    15    23    25    2
    16    23    26    1
    17    26    27   ar
    18    27    28   ar
    19    28    29   ar
    20    29    30    1
    21    29    31   ar
    22    31    32   ar
    23    10    11    1
    24    11    12    1
    25    15    16   am
    26    16    17    1
    27    17    18    1
    28    18    19    1
    29    19    20    1
    30    19    21    1
    31    12    10    1
    32    21    16    1
    33     9     1    1
    34    32    26   ar
    35     8     4    1
    36    20    22    1
@<TRIPOS>MOLECULE
*****
 32 36 0 0 0
SMALL
GASTEIGER

@<TRIPOS>ATOM
      1 C          61.1914   89.3607   10.8559 C.3     1  UNL1        0.1095
      2 C          60.4982   90.5227   10.2088 C.3     1  UNL1        0.1597
      3 O          59.7173   90.3208    8.9440 O.3     1  UNL1       -0.3533
      4 C          59.6297   88.9566    8.3265 C.3     1  UNL1        0.1315
      5 C          58.9386   88.4557    7.0930 C.3     1  UNL1        0.0311
      6 C          59.2047   86.9840    6.9779 C.3     1  UNL1        0.0041
      7 C          60.0603   86.5753    8.1402 C.3     1  UNL1        0.0203
      8 C          60.3229   87.7944    8.9737 C.3     1  UNL1        0.1066
      9 N          61.1038   87.9965   10.2384 N.3     1  UNL1       -0.1534
     10 C          61.9723   89.5626   12.1206 C.3     1  UNL1        0.0261
     11 C          62.2745   89.7077   13.5826 C.3     1  UNL1        0.0020
     12 C          60.8651   89.4689   13.1282 C.3     1  UNL1        0.0020
     13 C          63.3508   89.7265   11.5522 C.3     1  UNL1        0.0867
     14 O          63.6658   91.9582   10.2597 O.2     1  UNL1       -0.2749
     15 C          63.9617   91.0925   11.4484 C.2     1  UNL1        0.2257
     16 N          64.8686   91.5930   12.5334 N.am    1  UNL1       -0.2770
     17 C          65.2544   90.8448   13.7749 C.3     1  UNL1        0.0960
     18 C          66.1731   91.7189   14.5762 C.3     1  UNL1        0.0525
     19 C          66.3550   93.0072   13.8300 C.3     1  UNL1        0.1320
     20 O          67.1955   94.1694   14.2691 O.3     1  UNL1       -0.3827
     21 C          65.5488   92.9295   12.5675 C.3     1  UNL1        0.1225
     22 H          67.1414   94.8761   13.6068 H       1  UNL1        0.2104
     23 S          61.7971   86.8343   10.8856 S.O2    1  UNL1        0.0634
     24 O          62.8920   86.9185    9.8639 O.2     1  UNL1       -0.1528
     25 O          60.9919   86.5077   11.9187 O.2     1  UNL1       -0.1528
     26 C          62.4904   85.6722   11.5327 C.ar    1  UNL1        0.1223
     27 C          63.1290   85.8355   12.8801 C.ar    1  UNL1        0.0208
     28 C          63.8223   84.6734   13.5273 C.ar    1  UNL1        0.0128
     29 C          63.8770   83.3481   12.8271 C.ar    1  UNL1        0.0578
     30 CL         64.5704   82.1860   13.4743 Cl      1  UNL1       -0.0822
     31 C          63.2384   83.1848   11.4796 C.ar    1  UNL1        0.0128
     32 C          62.5451   84.3468   10.8324 C.ar    1  UNL1        0.0208
@<TRIPOS>BOND
     1    14    15    2
     2    15    13    1
     3    13    10    1
     4     1    10    1
     5     1     2    1
     6     2     3    1
     7     3     4    1
     8     4     5    1
     9     5     6    1
    10     6     7    1
    11     8     7    1
    12     8     9    1
    13     9    23    1
    14    23    24    2
    15    23    25    2
    16    23    26    1
    17    26    27   ar
    18    27    28   ar
    19    28    29   ar
    20    29    30    1
    21    29    31   ar
    22    31    32   ar
    23    10    11    1
    24    11    12    1
    25    15    16   am
    26    16    17    1
    27    17    18    1
    28    18    19    1
    29    19    20    1
    30    19    21    1
    31    12    10    1
    32    21    16    1
    33     9     1    1
    34    32    26   ar
    35     8     4    1
    36    20    22    1
@<TRIPOS>MOLECULE
*****
 32 36 0 0 0
SMALL
GASTEIGER

@<TRIPOS>ATOM
      1 C          63.4358   88.4434   13.0383 C.3     1  UNL1        0.1095
      2 C          64.2788   88.0941   14.2287 C.3     1  UNL1        0.1597
      3 O          64.5283   86.6561   14.5752 O.3     1  UNL1       -0.3533
      4 C          63.9346   85.5675   13.7311 C.3     1  UNL1        0.1315
      5 C          64.0061   84.0722   13.8258 C.3     1  UNL1        0.0311
      6 C          63.2073   83.4974   12.6938 C.3     1  UNL1        0.0041
      7 C          62.6420   84.6374   11.8995 C.3     1  UNL1        0.0203
      8 C          63.0916   85.9168   12.5406 C.3     1  UNL1        0.1066
      9 N          62.8422   87.3548   12.1942 N.3     1  UNL1       -0.1534
     10 C          63.1864   89.8814   12.6918 C.3     1  UNL1        0.0261
     11 C          62.4680   91.1882   12.5301 C.3     1  UNL1        0.0020
     12 C          61.7492   90.0031   13.1035 C.3     1  UNL1        0.0020
     13 C          64.5371   90.2592   12.1597 C.3     1  UNL1        0.0867
     14 O          64.6967   92.7175   11.3345 O.2     1  UNL1       -0.2749
     15 C          65.0484   91.6582   12.3365 C.2     1  UNL1        0.2257
     16 N          65.9115   91.9979   13.5154 N.am    1  UNL1       -0.2770
     17 C          66.3442   91.0493   14.5938 C.3     1  UNL1        0.0960
     18 C          67.1935   91.8110   15.5678 C.3     1  UNL1        0.0525
     19 C          67.2856   93.2302   15.0913 C.3     1  UNL1        0.1320
     20 O          68.0380   94.3394   15.7650 O.3     1  UNL1       -0.3827
     21 C          66.4933   93.3458   13.8229 C.3     1  UNL1        0.1225
     22 H          67.9363   95.1568   15.2527 H       1  UNL1        0.2104
     23 S          61.9992   87.7041   11.0037 S.O2    1  UNL1        0.0634
     24 O          60.7729   87.2510   11.7391 O.2     1  UNL1       -0.1528
     25 O          62.8864   88.1759   10.1023 O.2     1  UNL1       -0.1528
     26 C          61.1560   88.0535    9.8133 C.ar    1  UNL1        0.1223
     27 C          60.9227   89.4914    9.4555 C.ar    1  UNL1        0.0208
     28 C          60.0797   89.8408    8.2651 C.ar    1  UNL1        0.0128
     29 C          59.4699   88.7523    7.4325 C.ar    1  UNL1        0.0578
     30 CL         58.6268   89.1017    6.2420 Cl      1  UNL1       -0.0822
     31 C          59.7032   87.3144    7.7902 C.ar    1  UNL1        0.0128
     32 C          60.5463   86.9649    8.9807 C.ar    1  UNL1        0.0208
@<TRIPOS>BOND
     1    14    15    2
     2    15    13    1
     3    13    10    1
     4     1    10    1
     5     1     2    1
     6     2     3    1
     7     3     4    1
     8     4     5    1
     9     5     6    1
    10     6     7    1
    11     8     7    1
    12     8     9    1
    13     9    23    1
    14    23    24    2
    15    23    25    2
    16    23    26    1
    17    26    27   ar
    18    27    28   ar
    19    28    29   ar
    20    29    30    1
    21    29    31   ar
    22    31    32   ar
    23    10    11    1
    24    11    12    1
    25    15    16   am
    26    16    17    1
    27    17    18    1
    28    18    19    1
    29    19    20    1
    30    19    21    1
    31    12    10    1
    32    21    16    1
    33     9     1    1
    34    32    26   ar
    35     8     4    1
    36    20    22    1
@<TRIPOS>MOLECULE
*****
 32 36 0 0 0
SMALL
GASTEIGER

@<TRIPOS>ATOM
      1 C          63.3795   88.1539   13.1816 C.3     1  UNL1        0.1095
      2 C          64.1991   87.7401   14.3677 C.3     1  UNL1        0.1597
      3 O          64.4872   86.2881   14.6105 O.3     1  UNL1       -0.3533
      4 C          63.9556   85.2501   13.6671 C.3     1  UNL1        0.1315
      5 C          64.0752   83.7550   13.6490 C.3     1  UNL1        0.0311
      6 C          63.3296   83.2449   12.4516 C.3     1  UNL1        0.0041
      7 C          62.7491   84.4247   11.7297 C.3     1  UNL1        0.0203
      8 C          63.1361   85.6640   12.4810 C.3     1  UNL1        0.1066
      9 N          62.8480   87.1160   12.2382 N.3     1  UNL1       -0.1534
     10 C          63.0914   89.6059   12.9388 C.3     1  UNL1        0.0261
     11 C          62.3274   90.8582   12.6258 C.3     1  UNL1        0.0020
     12 C          61.6207   89.5353   12.6524 C.3     1  UNL1        0.0020
     13 C          64.4621   90.1807   13.1408 C.3     1  UNL1        0.0867
     14 O          63.6755   91.2947   15.3523 O.2     1  UNL1       -0.2749
     15 C          64.7342   91.0775   14.3121 C.2     1  UNL1        0.2257
     16 N          66.0650   91.7570   14.4432 N.am    1  UNL1       -0.2770
     17 C          67.2146   91.6361   13.4874 C.3     1  UNL1        0.0960
     18 C          68.3400   92.4812   14.0067 C.3     1  UNL1        0.0525
     19 C          67.8858   93.1243   15.2833 C.3     1  UNL1        0.1320
     20 O          68.6954   94.0521   16.1399 O.3     1  UNL1       -0.3827
     21 C          66.4798   92.6768   15.5532 C.3     1  UNL1        0.1225
     22 H          68.1690   94.3257   16.9073 H       1  UNL1        0.2104
     23 S          62.0284   87.5299   11.0521 S.O2    1  UNL1        0.0634
     24 O          60.8013   86.9627   11.7020 O.2     1  UNL1       -0.1528
     25 O          62.9215   88.1153   10.2262 O.2     1  UNL1       -0.1528
     26 C          61.2087   87.9438    9.8659 C.ar    1  UNL1        0.1223
     27 C          60.5230   86.9049    9.0289 C.ar    1  UNL1        0.0208
     28 C          59.7033   87.3187    7.8428 C.ar    1  UNL1        0.0128
     29 C          59.5694   88.7714    7.4937 C.ar    1  UNL1        0.0578
     30 CL         58.7497   89.1852    6.3076 Cl      1  UNL1       -0.0822
     31 C          60.2551   89.8102    8.3308 C.ar    1  UNL1        0.0128
     32 C          61.0748   89.3964    9.5169 C.ar    1  UNL1        0.0208
@<TRIPOS>BOND
     1    14    15    2
     2    15    13    1
     3    13    10    1
     4     1    10    1
     5     1     2    1
     6     2     3    1
     7     3     4    1
     8     4     5    1
     9     5     6    1
    10     6     7    1
    11     8     7    1
    12     8     9    1
    13     9    23    1
    14    23    24    2
    15    23    25    2
    16    23    26    1
    17    26    27   ar
    18    27    28   ar
    19    28    29   ar
    20    29    30    1
    21    29    31   ar
    22    31    32   ar
    23    10    11    1
    24    11    12    1
    25    15    16   am
    26    16    17    1
    27    17    18    1
    28    18    19    1
    29    19    20    1
    30    19    21    1
    31    12    10    1
    32    21    16    1
    33     9     1    1
    34    32    26   ar
    35     8     4    1
    36    20    22    1
@<TRIPOS>MOLECULE
*****
 32 36 0 0 0
SMALL
GASTEIGER

@<TRIPOS>ATOM
      1 C          61.7775   94.4886    0.2167 C.3     1  UNL1        0.1095
      2 C          63.2573   94.2911    0.3614 C.3     1  UNL1        0.1597
      3 O          64.0903   93.9554   -0.8401 O.3     1  UNL1       -0.3533
      4 C          63.4433   93.8173   -2.1863 C.3     1  UNL1        0.1315
      5 C          64.0027   93.4961   -3.5405 C.3     1  UNL1        0.0311
      6 C          62.8686   93.4952   -4.5222 C.3     1  UNL1        0.0041
      7 C          61.6082   93.8157   -3.7747 C.3     1  UNL1        0.0203
      8 C          61.9634   94.0148   -2.3310 C.3     1  UNL1        0.1066
      9 N          61.1305   94.3505   -1.1295 N.3     1  UNL1       -0.1534
     10 C          60.9446   94.8243    1.4182 C.3     1  UNL1        0.0261
     11 C          60.3068   95.6304    2.5106 C.3     1  UNL1        0.0020
     12 C          61.2172   96.2957    1.5214 C.3     1  UNL1        0.0020
     13 C          60.3826   93.4694    1.7323 C.3     1  UNL1        0.0867
     14 O          62.5126   92.4137    2.7805 O.2     1  UNL1       -0.2749
     15 C          61.0263   92.6161    2.7846 C.2     1  UNL1        0.2257
     16 N          60.1837   91.9650    3.8411 N.am    1  UNL1       -0.2770
     17 C          58.6936   92.0755    3.9725 C.3     1  UNL1        0.0960
     18 C          58.2722   91.2679    5.1644 C.3     1  UNL1        0.0525
     19 C          59.5019   90.6585    5.7695 C.3     1  UNL1        0.1320
     20 O          59.5431   89.7735    6.9800 O.3     1  UNL1       -0.3827
     21 C          60.6833   91.0892    4.9518 C.3     1  UNL1        0.1225
     22 H          60.4605   89.5154    7.1607 H       1  UNL1        0.2104
     23 S          59.6506   94.5480   -1.2742 S.O2    1  UNL1        0.0634
     24 O          59.4441   93.0649   -1.1863 O.2     1  UNL1       -0.1528
     25 O          59.5087   95.8861   -1.3825 O.2     1  UNL1       -0.1528
     26 C          58.1707   94.7454   -1.4189 C.ar    1  UNL1        0.1223
     27 C          57.2802   93.5693   -1.6903 C.ar    1  UNL1        0.0208
     28 C          55.8003   93.7666   -1.8350 C.ar    1  UNL1        0.0128
     29 C          55.2110   95.1401   -1.7083 C.ar    1  UNL1        0.0578
     30 CL         53.7311   95.3375   -1.8530 Cl      1  UNL1       -0.0822
     31 C          56.1015   96.3163   -1.4369 C.ar    1  UNL1        0.0128
     32 C          57.5814   96.1190   -1.2922 C.ar    1  UNL1        0.0208
@<TRIPOS>BOND
     1    14    15    2
     2    15    13    1
     3    13    10    1
     4     1    10    1
     5     1     2    1
     6     2     3    1
     7     3     4    1
     8     4     5    1
     9     5     6    1
    10     6     7    1
    11     8     7    1
    12     8     9    1
    13     9    23    1
    14    23    24    2
    15    23    25    2
    16    23    26    1
    17    26    27   ar
    18    27    28   ar
    19    28    29   ar
    20    29    30    1
    21    29    31   ar
    22    31    32   ar
    23    10    11    1
    24    11    12    1
    25    15    16   am
    26    16    17    1
    27    17    18    1
    28    18    19    1
    29    19    20    1
    30    19    21    1
    31    12    10    1
    32    21    16    1
    33     9     1    1
    34    32    26   ar
    35     8     4    1
    36    20    22    1
@<TRIPOS>MOLECULE
*****
 32 36 0 0 0
SMALL
GASTEIGER

@<TRIPOS>ATOM
      1 C          61.5764   86.0233    9.1872 C.3     1  UNL1        0.1095
      2 C          60.8192   85.2919    8.1189 C.3     1  UNL1        0.1597
      3 O          59.8249   86.0254    7.2683 O.3     1  UNL1       -0.3533
      4 C          59.5879   87.4904    7.4862 C.3     1  UNL1        0.1315
      5 C          58.6778   88.4715    6.8086 C.3     1  UNL1        0.0311
      6 C          58.8726   89.8094    7.4583 C.3     1  UNL1        0.0041
      7 C          59.9030   89.6552    8.5373 C.3     1  UNL1        0.0203
      8 C          60.3451   88.2219    8.5546 C.3     1  UNL1        0.1066
      9 N          61.3394   87.4884    9.4051 N.3     1  UNL1       -0.1534
     10 C          62.5707   85.2899   10.0378 C.3     1  UNL1        0.0261
     11 C          63.8365   84.5961   10.4456 C.3     1  UNL1        0.0020
     12 C          63.6980   85.1495    9.0583 C.3     1  UNL1        0.0020
     13 C          61.7886   85.1755   11.3127 C.3     1  UNL1        0.0867
     14 O          62.8751   85.5829   13.6373 O.2     1  UNL1       -0.2749
     15 C          62.4463   84.6419   12.5507 C.2     1  UNL1        0.2257
     16 N          62.6751   83.1671   12.7022 N.am    1  UNL1       -0.2770
     17 C          62.3021   82.1101   11.7055 C.3     1  UNL1        0.0960
     18 C          62.7136   80.7802   12.2643 C.3     1  UNL1        0.0525
     19 C          63.3408   81.0155   13.6063 C.3     1  UNL1        0.1320
     20 O          63.8947   79.9607   14.5178 O.3     1  UNL1       -0.3827
     21 C          63.3171   82.4906   13.8770 C.3     1  UNL1        0.1225
     22 H          64.2415   80.3778   15.3219 H       1  UNL1        0.2104
     23 S          62.0966   88.2199   10.4735 S.O2    1  UNL1        0.0634
     24 O          61.0142   87.8984   11.4609 O.2     1  UNL1       -0.1528
     25 O          63.2068   88.6600    9.8439 O.2     1  UNL1       -0.1528
     26 C          62.8538   88.9514   11.5420 C.ar    1  UNL1        0.1223
     27 C          63.0828   90.4289   11.4210 C.ar    1  UNL1        0.0208
     28 C          63.8399   91.1605   12.4894 C.ar    1  UNL1        0.0128
     29 C          64.3681   90.4145   13.6787 C.ar    1  UNL1        0.0578
     30 CL         65.1253   91.1461   14.7471 Cl      1  UNL1       -0.0822
     31 C          64.1392   88.9370   13.7997 C.ar    1  UNL1        0.0128
     32 C          63.3820   88.2054   12.7313 C.ar    1  UNL1        0.0208
@<TRIPOS>BOND
     1    14    15    2
     2    15    13    1
     3    13    10    1
     4     1    10    1
     5     1     2    1
     6     2     3    1
     7     3     4    1
     8     4     5    1
     9     5     6    1
    10     6     7    1
    11     8     7    1
    12     8     9    1
    13     9    23    1
    14    23    24    2
    15    23    25    2
    16    23    26    1
    17    26    27   ar
    18    27    28   ar
    19    28    29   ar
    20    29    30    1
    21    29    31   ar
    22    31    32   ar
    23    10    11    1
    24    11    12    1
    25    15    16   am
    26    16    17    1
    27    17    18    1
    28    18    19    1
    29    19    20    1
    30    19    21    1
    31    12    10    1
    32    21    16    1
    33     9     1    1
    34    32    26   ar
    35     8     4    1
    36    20    22    1
@<TRIPOS>MOLECULE
*****
 32 36 0 0 0
SMALL
GASTEIGER

@<TRIPOS>ATOM
      1 C          61.8784   87.7772   11.8586 C.3     1  UNL1        0.1095
      2 C          61.1658   86.4907   11.5637 C.3     1  UNL1        0.1597
      3 O          61.6528   85.2076   12.1693 O.3     1  UNL1       -0.3533
      4 C          62.8524   85.2112   13.0699 C.3     1  UNL1        0.1315
      5 C          63.5582   84.1111   13.8057 C.3     1  UNL1        0.0311
      6 C          64.7071   84.7178   14.5554 C.3     1  UNL1        0.0041
      7 C          64.7113   86.1928   14.2829 C.3     1  UNL1        0.0203
      8 C          63.5650   86.4978   13.3648 C.3     1  UNL1        0.1066
      9 N          63.0780   87.7808   12.7592 N.3     1  UNL1       -0.1534
     10 C          61.3914   89.0603   11.2530 C.3     1  UNL1        0.0261
     11 C          60.7516   90.4122   11.1406 C.3     1  UNL1        0.0020
     12 C          60.7819   89.7045   12.4628 C.3     1  UNL1        0.0020
     13 C          61.8319   88.8616    9.8330 C.3     1  UNL1        0.0867
     14 O          59.5933   88.7583    8.5183 O.2     1  UNL1       -0.2749
     15 C          60.9289   88.1659    8.8580 C.2     1  UNL1        0.2257
     16 N          61.3615   86.8778    8.2226 N.am    1  UNL1       -0.2770
     17 C          62.6612   86.1689    8.4633 C.3     1  UNL1        0.0960
     18 C          62.6732   84.9254    7.6245 C.3     1  UNL1        0.0525
     19 C          61.3809   84.8658    6.8655 C.3     1  UNL1        0.1320
     20 O          60.9711   83.7886    5.9054 O.3     1  UNL1       -0.3827
     21 C          60.5701   86.0724    7.2351 C.3     1  UNL1        0.1225
     22 H          60.0903   83.9886    5.5517 H       1  UNL1        0.2104
     23 S          63.7906   89.0673   13.0541 S.O2    1  UNL1        0.0634
     24 O          63.5963   88.8381   14.5237 O.2     1  UNL1       -0.1528
     25 O          64.1154   89.5477   11.8350 O.2     1  UNL1       -0.1528
     26 C          64.5032   90.3539   13.3491 C.ar    1  UNL1        0.1223
     27 C          65.1165   90.5789   14.6993 C.ar    1  UNL1        0.0208
     28 C          65.8291   91.8655   14.9944 C.ar    1  UNL1        0.0128
     29 C          65.9283   92.9269   13.9392 C.ar    1  UNL1        0.0578
     30 CL         66.6410   94.2134   14.2343 Cl      1  UNL1       -0.0822
     31 C          65.3150   92.7018   12.5889 C.ar    1  UNL1        0.0128
     32 C          64.6024   91.4153   12.2939 C.ar    1  UNL1        0.0208
@<TRIPOS>BOND
     1    14    15    2
     2    15    13    1
     3    13    10    1
     4     1    10    1
     5     1     2    1
     6     2     3    1
     7     3     4    1
     8     4     5    1
     9     5     6    1
    10     6     7    1
    11     8     7    1
    12     8     9    1
    13     9    23    1
    14    23    24    2
    15    23    25    2
    16    23    26    1
    17    26    27   ar
    18    27    28   ar
    19    28    29   ar
    20    29    30    1
    21    29    31   ar
    22    31    32   ar
    23    10    11    1
    24    11    12    1
    25    15    16   am
    26    16    17    1
    27    17    18    1
    28    18    19    1
    29    19    20    1
    30    19    21    1
    31    12    10    1
    32    21    16    1
    33     9     1    1
    34    32    26   ar
    35     8     4    1
    36    20    22    1
@<TRIPOS>MOLECULE
*****
 32 36 0 0 0
SMALL
GASTEIGER

@<TRIPOS>ATOM
      1 C          61.8921   88.6971   11.0950 C.3     1  UNL1        0.1095
      2 C          61.4065   89.9865   10.5024 C.3     1  UNL1        0.1597
      3 O          60.5053   89.9686    9.3033 O.3     1  UNL1       -0.3533
      4 C          60.0899   88.6610    8.6970 C.3     1  UNL1        0.1315
      5 C          59.2169   88.3316    7.5225 C.3     1  UNL1        0.0311
      6 C          59.1631   86.8385    7.3893 C.3     1  UNL1        0.0041
      7 C          60.0028   86.2451    8.4814 C.3     1  UNL1        0.0203
      8 C          60.5756   87.3715    9.2896 C.3     1  UNL1        0.1066
      9 N          61.4767   87.3895   10.4887 N.3     1  UNL1       -0.1534
     10 C          62.7932   88.7151   12.2941 C.3     1  UNL1        0.0261
     11 C          63.8407   88.2825   13.2767 C.3     1  UNL1        0.0020
     12 C          63.5278   87.4237   12.0874 C.3     1  UNL1        0.0020
     13 C          62.3716   90.0127   12.9173 C.3     1  UNL1        0.0867
     14 O          63.5496   91.1398   14.9403 O.2     1  UNL1       -0.2749
     15 C          63.4050   90.9555   13.4586 C.2     1  UNL1        0.2257
     16 N          64.2941   91.7141   12.5183 N.am    1  UNL1       -0.2770
     17 C          64.2664   91.6336   11.0208 C.3     1  UNL1        0.0960
     18 C          65.3221   92.5562   10.4874 C.3     1  UNL1        0.0525
     19 C          66.0021   93.2068   11.6552 C.3     1  UNL1        0.1320
     20 O          67.1211   94.2030   11.5811 O.3     1  UNL1       -0.3827
     21 C          65.3668   92.6865   12.9105 C.3     1  UNL1        0.1225
     22 H          67.3792   94.4668   12.4781 H       1  UNL1        0.2104
     23 S          61.9623   86.1000   11.0814 S.O2    1  UNL1        0.0634
     24 O          62.8698   85.9006    9.9038 O.2     1  UNL1       -0.1528
     25 O          61.2756   85.9933   12.2387 O.2     1  UNL1       -0.1528
     26 C          62.4481   84.8104   11.6740 C.ar    1  UNL1        0.1223
     27 C          63.1169   83.7894   10.8022 C.ar    1  UNL1        0.0208
     28 C          63.6027   82.4998   11.3947 C.ar    1  UNL1        0.0128
     29 C          63.4196   82.2314   12.8590 C.ar    1  UNL1        0.0578
     30 CL         63.9053   80.9418   13.4516 Cl      1  UNL1       -0.0822
     31 C          62.7507   83.2525   13.7309 C.ar    1  UNL1        0.0128
     32 C          62.2650   84.5420   13.1383 C.ar    1  UNL1        0.0208
@<TRIPOS>BOND
     1    14    15    2
     2    15    13    1
     3    13    10    1
     4     1    10    1
     5     1     2    1
     6     2     3    1
     7     3     4    1
     8     4     5    1
     9     5     6    1
    10     6     7    1
    11     8     7    1
    12     8     9    1
    13     9    23    1
    14    23    24    2
    15    23    25    2
    16    23    26    1
    17    26    27   ar
    18    27    28   ar
    19    28    29   ar
    20    29    30    1
    21    29    31   ar
    22    31    32   ar
    23    10    11    1
    24    11    12    1
    25    15    16   am
    26    16    17    1
    27    17    18    1
    28    18    19    1
    29    19    20    1
    30    19    21    1
    31    12    10    1
    32    21    16    1
    33     9     1    1
    34    32    26   ar
    35     8     4    1
    36    20    22    1
