@<TRIPOS>MOLECULE
*****
 39 43 0 0 0
SMALL
GASTEIGER

@<TRIPOS>ATOM
      1 C          65.8176   91.3931   14.1321 C.ar    1  UNL1        0.0870
      2 N          65.2449   90.2954   14.9789 N.ar    1  UNL1       -0.2279
      3 C          64.0576   89.5167   14.4951 C.ar    1  UNL1        0.1596
      4 N          63.4849   88.4191   15.3419 N.pl3   1  UNL1       -0.3402
      5 C          63.4430   89.8359   13.1645 C.ar    1  UNL1        0.1696
      6 C          64.0157   90.9336   12.3178 C.ar    1  UNL1        0.0428
      7 C          65.2030   91.7122   12.8015 C.ar    1  UNL1        0.0380
      8 H          63.8883   88.2096   16.2152 H       1  UNL1        0.1438
      9 H          62.7056   87.9080   15.0243 H       1  UNL1        0.1438
     10 C          65.7757   92.8099   11.9547 C.ar    1  UNL1        0.0777
     11 C          65.4430   94.2411   12.2564 C.ar    1  UNL1        0.1176
     12 N          66.0157   95.3388   11.4097 N.ar    1  UNL1       -0.2209
     13 C          66.9210   95.0053   10.2612 C.ar    1  UNL1        0.2006
     14 N          67.6298   95.8672    9.2588 N.ar    1  UNL1       -0.1272
     15 N          68.4006   94.9688    8.3375 N.ar    1  UNL1       -0.1493
     16 C          68.1681   93.5516    8.7706 C.ar    1  UNL1        0.0995
     17 C          68.7482   92.3268    8.1276 C.3     1  UNL1        0.0557
     18 C          67.2537   93.5742    9.9594 C.ar    1  UNL1        0.1101
     19 N          66.6811   92.4765   10.8062 N.ar    1  UNL1       -0.3484
     20 H          66.8994   91.5371   10.6082 H       1  UNL1        0.1661
     21 C          68.7976   91.3707   12.8021 C.3     1  UNL1        0.0725
     22 C          68.3747   92.1614   14.0046 C.ar    1  UNL1        0.1248
     23 O          69.2473   93.0807   14.8068 O.2     1  UNL1       -0.4546
     24 C          68.4168   93.6591   15.9139 C.ar    1  UNL1        0.1792
     25 C          67.0310   93.0973   15.7959 C.ar    1  UNL1        0.0448
     26 C          67.0049   92.1717   14.6159 C.ar    1  UNL1        0.0512
     27 O          62.2557   89.0573   12.6807 O.3     1  UNL1       -0.4712
     28 C          61.2309   89.7179   11.8071 C.3     1  UNL1        0.2211
     29 C          60.7995   89.0617   10.5291 C.3     1  UNL1        0.0995
     30 N          60.7926   89.8441    9.2494 N.3     1  UNL1       -0.3190
     31 H          60.4742   89.2460    8.4869 H       1  UNL1        0.1189
     32 H          61.7358   90.1770    9.0493 H       1  UNL1        0.1189
     33 C          60.3751   87.6229   10.5309 C.3     1  UNL1        0.0456
     34 C          61.3767   86.5452   10.2390 C.ar    1  UNL1       -0.0207
     35 C          61.8285   85.6247   11.3340 C.ar    1  UNL1       -0.0042
     36 C          62.8301   84.5470   11.0421 C.ar    1  UNL1       -0.0003
     37 C          63.3799   84.3896    9.6553 C.ar    1  UNL1       -0.0000
     38 C          62.9281   85.3100    8.5605 C.ar    1  UNL1       -0.0003
     39 C          61.9265   86.3877    8.8524 C.ar    1  UNL1       -0.0042
@<TRIPOS>BOND
     1    21    22    1
     2    22    23   ar
     3    23    24   ar
     4    24    25   ar
     5    25    26   ar
     6    26     1    1
     7     1     2   ar
     8     2     3   ar
     9     3     4    1
    10     3     5   ar
    11     5    27    1
    12    27    28    1
    13    28    29    1
    14    29    30    1
    15    29    33    1
    16    33    34    1
    17    34    35   ar
    18    35    36   ar
    19    36    37   ar
    20    37    38   ar
    21    38    39   ar
    22     5     6   ar
    23     6     7   ar
    24     7    10    1
    25    10    11   ar
    26    11    12   ar
    27    12    13   ar
    28    13    14   ar
    29    14    15   ar
    30    15    16   ar
    31    16    17    1
    32    16    18   ar
    33    18    19   ar
    34    26    22   ar
    35     7     1   ar
    36    19    10   ar
    37    39    34   ar
    38    18    13    1
    39     4     8    1
    40     4     9    1
    41    30    31    1
    42    30    32    1
    43    19    20    1
@<TRIPOS>MOLECULE
*****
 39 43 0 0 0
SMALL
GASTEIGER

@<TRIPOS>ATOM
      1 C          61.8088   87.0606    9.4116 C.ar    1  UNL1        0.0870
      2 N          61.4646   88.5150    9.2832 N.ar    1  UNL1       -0.2279
      3 C          61.7079   89.4475   10.4327 C.ar    1  UNL1        0.1596
      4 N          61.3638   90.9019   10.3044 N.pl3   1  UNL1       -0.3402
      5 C          62.2954   88.9257   11.7104 C.ar    1  UNL1        0.1696
      6 C          62.6395   87.4714   11.8387 C.ar    1  UNL1        0.0428
      7 C          62.3962   86.5388   10.6893 C.ar    1  UNL1        0.0380
      8 H          60.9783   91.2444    9.4657 H       1  UNL1        0.1438
      9 H          61.5235   91.5139   11.0588 H       1  UNL1        0.1438
     10 C          62.7403   85.0844   10.8177 C.ar    1  UNL1        0.0777
     11 C          63.5600   84.4113    9.7570 C.ar    1  UNL1        0.1176
     12 N          63.9042   82.9570    9.8853 N.ar    1  UNL1       -0.2209
     13 C          63.4286   82.1758   11.0743 C.ar    1  UNL1        0.2006
     14 N          63.6097   80.7403   11.4698 N.ar    1  UNL1       -0.1272
     15 N          62.9019   80.5262   12.7749 N.ar    1  UNL1       -0.1493
     16 C          62.2834   81.8295   13.1859 C.ar    1  UNL1        0.0995
     17 C          61.4803   82.0709   14.4296 C.3     1  UNL1        0.0557
     18 C          62.6089   82.8490   12.1349 C.ar    1  UNL1        0.1101
     19 N          62.2647   84.3033   12.0066 N.ar    1  UNL1       -0.3484
     20 H          61.7267   84.7451   12.7027 H       1  UNL1        0.1661
     21 C          58.9370   86.5107    7.9623 C.3     1  UNL1        0.0725
     22 C          60.2455   85.8753    7.5960 C.ar    1  UNL1        0.1248
     23 O          60.4636   84.8756    6.4992 O.2     1  UNL1       -0.4546
     24 C          61.9185   84.5105    6.4875 C.ar    1  UNL1        0.1792
     25 C          62.5994   85.2846    7.5770 C.ar    1  UNL1        0.0448
     26 C          61.5654   86.1281    8.2621 C.ar    1  UNL1        0.0512
     27 O          62.5387   89.8582   12.8599 O.3     1  UNL1       -0.4712
     28 C          63.8863   90.4918   13.0393 C.3     1  UNL1        0.2211
     29 C          64.4962   90.5829   14.4067 C.3     1  UNL1        0.0995
     30 N          65.8477   91.2088   14.5849 N.3     1  UNL1       -0.3190
     31 H          66.1053   91.1864   15.5716 H       1  UNL1        0.1189
     32 H          65.8196   92.1761   14.2627 H       1  UNL1        0.1189
     33 C          63.7546   90.0481   15.5958 C.3     1  UNL1        0.0456
     34 C          63.7050   88.5700   15.8462 C.ar    1  UNL1       -0.0207
     35 C          62.9885   88.0371   17.0516 C.ar    1  UNL1       -0.0042
     36 C          62.9389   86.5590   17.3019 C.ar    1  UNL1       -0.0003
     37 C          63.6057   85.6138   16.3469 C.ar    1  UNL1       -0.0000
     38 C          64.3222   86.1467   15.1417 C.ar    1  UNL1       -0.0003
     39 C          64.3718   87.6248   14.8913 C.ar    1  UNL1       -0.0042
@<TRIPOS>BOND
     1    21    22    1
     2    22    23   ar
     3    23    24   ar
     4    24    25   ar
     5    25    26   ar
     6    26     1    1
     7     1     2   ar
     8     2     3   ar
     9     3     4    1
    10     3     5   ar
    11     5    27    1
    12    27    28    1
    13    28    29    1
    14    29    30    1
    15    29    33    1
    16    33    34    1
    17    34    35   ar
    18    35    36   ar
    19    36    37   ar
    20    37    38   ar
    21    38    39   ar
    22     5     6   ar
    23     6     7   ar
    24     7    10    1
    25    10    11   ar
    26    11    12   ar
    27    12    13   ar
    28    13    14   ar
    29    14    15   ar
    30    15    16   ar
    31    16    17    1
    32    16    18   ar
    33    18    19   ar
    34    26    22   ar
    35     7     1   ar
    36    19    10   ar
    37    39    34   ar
    38    18    13    1
    39     4     8    1
    40     4     9    1
    41    30    31    1
    42    30    32    1
    43    19    20    1
@<TRIPOS>MOLECULE
*****
 39 43 0 0 0
SMALL
GASTEIGER

@<TRIPOS>ATOM
      1 C          61.8526   86.9749    9.4559 C.ar    1  UNL1        0.0870
      2 N          61.5324   88.4372    9.3593 N.ar    1  UNL1       -0.2279
      3 C          61.8069   89.3434   10.5227 C.ar    1  UNL1        0.1596
      4 N          61.4867   90.8057   10.4262 N.pl3   1  UNL1       -0.3402
      5 C          62.4015   88.7874   11.7826 C.ar    1  UNL1        0.1696
      6 C          62.7217   87.3252   11.8791 C.ar    1  UNL1        0.0428
      7 C          62.4472   86.4189   10.7158 C.ar    1  UNL1        0.0380
      8 H          61.0965   91.1706    9.5993 H       1  UNL1        0.1438
      9 H          61.6669   91.4004   11.1897 H       1  UNL1        0.1438
     10 C          62.7674   84.9566   10.8123 C.ar    1  UNL1        0.0777
     11 C          63.6164   84.3038    9.7621 C.ar    1  UNL1        0.1176
     12 N          63.9366   82.8416    9.8586 N.ar    1  UNL1       -0.2209
     13 C          63.4078   82.0322   11.0054 C.ar    1  UNL1        0.2006
     14 N          63.5556   80.5831   11.3636 N.ar    1  UNL1       -0.1272
     15 N          62.7979   80.3403   12.6352 N.ar    1  UNL1       -0.1493
     16 C          62.1819   81.6393   13.0629 C.ar    1  UNL1        0.0995
     17 C          61.3372   81.8549   14.2836 C.3     1  UNL1        0.0557
     18 C          62.5588   82.6850   12.0556 C.ar    1  UNL1        0.1101
     19 N          62.2386   84.1472   11.9591 N.ar    1  UNL1       -0.3484
     20 H          61.6813   84.5756   12.6484 H       1  UNL1        0.1661
     21 C          58.9635   86.5417    8.0016 C.3     1  UNL1        0.0725
     22 C          60.2502   85.8695    7.6241 C.ar    1  UNL1        0.1248
     23 O          60.4348   84.8802    6.5118 O.2     1  UNL1       -0.4546
     24 C          61.8769   84.4679    6.4928 C.ar    1  UNL1        0.1792
     25 C          62.5835   85.2023    7.5934 C.ar    1  UNL1        0.0448
     26 C          61.5782   86.0686    8.2926 C.ar    1  UNL1        0.0512
     27 O          62.6759   89.6936   12.9460 O.3     1  UNL1       -0.4712
     28 C          63.7756   89.3631   13.9111 C.3     1  UNL1        0.2211
     29 C          63.7193   89.8803   15.3180 C.3     1  UNL1        0.0995
     30 N          63.2550   88.9849   16.4282 N.3     1  UNL1       -0.3190
     31 H          63.2800   89.4963   17.3104 H       1  UNL1        0.1189
     32 H          63.8685   88.1723   16.4888 H       1  UNL1        0.1189
     33 C          64.1274   91.2930   15.6146 C.3     1  UNL1        0.0456
     34 C          65.5316   91.7419   15.3376 C.ar    1  UNL1       -0.0207
     35 C          66.2868   92.5235   16.3714 C.ar    1  UNL1       -0.0042
     36 C          67.6910   92.9724   16.0944 C.ar    1  UNL1       -0.0003
     37 C          68.3400   92.6397   14.7836 C.ar    1  UNL1       -0.0000
     38 C          67.5847   91.8581   13.7498 C.ar    1  UNL1       -0.0003
     39 C          66.1805   91.4092   14.0268 C.ar    1  UNL1       -0.0042
@<TRIPOS>BOND
     1    21    22    1
     2    22    23   ar
     3    23    24   ar
     4    24    25   ar
     5    25    26   ar
     6    26     1    1
     7     1     2   ar
     8     2     3   ar
     9     3     4    1
    10     3     5   ar
    11     5    27    1
    12    27    28    1
    13    28    29    1
    14    29    30    1
    15    29    33    1
    16    33    34    1
    17    34    35   ar
    18    35    36   ar
    19    36    37   ar
    20    37    38   ar
    21    38    39   ar
    22     5     6   ar
    23     6     7   ar
    24     7    10    1
    25    10    11   ar
    26    11    12   ar
    27    12    13   ar
    28    13    14   ar
    29    14    15   ar
    30    15    16   ar
    31    16    17    1
    32    16    18   ar
    33    18    19   ar
    34    26    22   ar
    35     7     1   ar
    36    19    10   ar
    37    39    34   ar
    38    18    13    1
    39     4     8    1
    40     4     9    1
    41    30    31    1
    42    30    32    1
    43    19    20    1
@<TRIPOS>MOLECULE
*****
 39 43 0 0 0
SMALL
GASTEIGER

@<TRIPOS>ATOM
      1 C          62.3906   87.7268    9.8695 C.ar    1  UNL1        0.0870
      2 N          62.4161   89.1705    9.4630 N.ar    1  UNL1       -0.2279
      3 C          62.7801   90.2255   10.4653 C.ar    1  UNL1        0.1596
      4 N          62.8056   91.6692   10.0589 N.pl3   1  UNL1       -0.3402
      5 C          63.1186   89.8368   11.8740 C.ar    1  UNL1        0.1696
      6 C          63.0931   88.3932   12.2804 C.ar    1  UNL1        0.0428
      7 C          62.7291   87.3382   11.2781 C.ar    1  UNL1        0.0380
      8 H          62.5834   91.9243    9.1343 H       1  UNL1        0.1438
      9 H          63.0445   92.3616   10.7167 H       1  UNL1        0.1438
     10 C          62.7036   85.8945   11.6846 C.ar    1  UNL1        0.0777
     11 C          62.7199   84.8202   10.6378 C.ar    1  UNL1        0.1176
     12 N          62.6944   83.3766   11.0442 N.ar    1  UNL1       -0.2209
     13 C          62.6526   83.0072   12.4974 C.ar    1  UNL1        0.2006
     14 N          62.6207   81.6797   13.1951 N.ar    1  UNL1       -0.1272
     15 N          62.5847   81.9335   14.6730 N.ar    1  UNL1       -0.1493
     16 C          62.5943   83.4178   14.8887 C.ar    1  UNL1        0.0995
     17 C          62.5668   84.1160   16.2160 C.3     1  UNL1        0.0557
     18 C          62.6363   84.0814   13.5442 C.ar    1  UNL1        0.1101
     19 N          62.6618   85.5251   13.1378 N.ar    1  UNL1       -0.3484
     20 H          62.6511   86.2301   13.8248 H       1  UNL1        0.1661
     21 C          59.3859   87.0757    8.7753 C.3     1  UNL1        0.0725
     22 C          60.6455   86.3725    8.3643 C.ar    1  UNL1        0.1248
     23 O          60.7451   85.2466    7.3782 O.2     1  UNL1       -0.4546
     24 C          62.1878   84.8500    7.2717 C.ar    1  UNL1        0.1792
     25 C          62.9798   85.7309    8.1919 C.ar    1  UNL1        0.0448
     26 C          62.0266   86.6718    8.8672 C.ar    1  UNL1        0.0512
     27 O          63.4826   90.8918   12.8762 O.3     1  UNL1       -0.4712
     28 C          64.8313   90.8696   13.5322 C.3     1  UNL1        0.2211
     29 C          65.7926   91.9992   13.3090 C.3     1  UNL1        0.0995
     30 N          67.0409   92.0961   14.1351 N.3     1  UNL1       -0.3190
     31 H          67.5734   92.9185   13.8513 H       1  UNL1        0.1189
     32 H          67.6071   91.2594   13.9949 H       1  UNL1        0.1189
     33 C          65.5056   93.0320   12.2597 C.3     1  UNL1        0.0456
     34 C          66.4740   93.2473   11.1346 C.ar    1  UNL1       -0.0207
     35 C          66.5627   94.5880   10.4675 C.ar    1  UNL1       -0.0042
     36 C          67.5311   94.8033    9.3425 C.ar    1  UNL1       -0.0003
     37 C          68.4109   93.6780    8.8844 C.ar    1  UNL1       -0.0000
     38 C          68.3222   92.3374    9.5515 C.ar    1  UNL1       -0.0003
     39 C          67.3538   92.1221   10.6766 C.ar    1  UNL1       -0.0042
@<TRIPOS>BOND
     1    21    22    1
     2    22    23   ar
     3    23    24   ar
     4    24    25   ar
     5    25    26   ar
     6    26     1    1
     7     1     2   ar
     8     2     3   ar
     9     3     4    1
    10     3     5   ar
    11     5    27    1
    12    27    28    1
    13    28    29    1
    14    29    30    1
    15    29    33    1
    16    33    34    1
    17    34    35   ar
    18    35    36   ar
    19    36    37   ar
    20    37    38   ar
    21    38    39   ar
    22     5     6   ar
    23     6     7   ar
    24     7    10    1
    25    10    11   ar
    26    11    12   ar
    27    12    13   ar
    28    13    14   ar
    29    14    15   ar
    30    15    16   ar
    31    16    17    1
    32    16    18   ar
    33    18    19   ar
    34    26    22   ar
    35     7     1   ar
    36    19    10   ar
    37    39    34   ar
    38    18    13    1
    39     4     8    1
    40     4     9    1
    41    30    31    1
    42    30    32    1
    43    19    20    1
@<TRIPOS>MOLECULE
*****
 39 43 0 0 0
SMALL
GASTEIGER

@<TRIPOS>ATOM
      1 C          65.4040   91.9189   13.3439 C.ar    1  UNL1        0.0870
      2 N          65.7364   92.7727   12.1562 N.ar    1  UNL1       -0.2279
      3 C          64.9211   92.6631   10.9019 C.ar    1  UNL1        0.1596
      4 N          65.2535   93.5168    9.7143 N.pl3   1  UNL1       -0.3402
      5 C          63.7733   91.6996   10.8354 C.ar    1  UNL1        0.1696
      6 C          63.4409   90.8458   12.0230 C.ar    1  UNL1        0.0428
      7 C          64.2563   90.9555   13.2773 C.ar    1  UNL1        0.0380
      8 H          66.0068   94.1492    9.7580 H       1  UNL1        0.1438
      9 H          64.7183   93.4448    8.8911 H       1  UNL1        0.1438
     10 C          63.9238   90.1017   14.4650 C.ar    1  UNL1        0.0777
     11 C          63.3968   90.7338   15.7191 C.ar    1  UNL1        0.1176
     12 N          63.0644   89.8800   16.9067 N.ar    1  UNL1       -0.2209
     13 C          63.2590   88.3942   16.8403 C.ar    1  UNL1        0.2006
     14 N          63.0204   87.3048   17.8435 N.ar    1  UNL1       -0.1272
     15 N          63.4000   85.9995   17.2095 N.ar    1  UNL1       -0.1493
     16 C          63.8732   86.2821   15.8144 C.ar    1  UNL1        0.0995
     17 C          64.3498   85.2636   14.8217 C.3     1  UNL1        0.0557
     18 C          63.7860   87.7621   15.5862 C.ar    1  UNL1        0.1101
     19 N          64.1184   88.6159   14.3986 N.ar    1  UNL1       -0.3484
     20 H          64.4643   88.2010   13.5755 H       1  UNL1        0.1661
     21 C          68.6357   91.5266   13.5714 C.3     1  UNL1        0.0725
     22 C          67.7048   91.8483   14.7027 C.ar    1  UNL1        0.1248
     23 O          68.0960   92.0461   16.1373 O.2     1  UNL1       -0.4546
     24 C          66.8522   92.3486   16.9193 C.ar    1  UNL1        0.1792
     25 C          65.6925   92.3378   15.9681 C.ar    1  UNL1        0.0448
     26 C          66.2194   92.0286   14.5981 C.ar    1  UNL1        0.0512
     27 O          62.9579   91.5899    9.5811 O.3     1  UNL1       -0.4712
     28 C          62.2812   90.2962    9.2372 C.3     1  UNL1        0.2211
     29 C          61.1222   89.8145   10.0586 C.3     1  UNL1        0.0995
     30 N          60.0508   90.7758   10.4803 N.3     1  UNL1       -0.3190
     31 H          59.3466   90.2813   11.0278 H       1  UNL1        0.1189
     32 H          59.6143   91.1827    9.6530 H       1  UNL1        0.1189
     33 C          61.0347   88.3713   10.4583 C.3     1  UNL1        0.0456
     34 C          61.2062   87.2957    9.4270 C.ar    1  UNL1       -0.0207
     35 C          60.0705   86.9470    8.5111 C.ar    1  UNL1       -0.0042
     36 C          60.2420   85.8713    7.4798 C.ar    1  UNL1       -0.0003
     37 C          61.5491   85.1445    7.3643 C.ar    1  UNL1       -0.0000
     38 C          62.6847   85.4933    8.2802 C.ar    1  UNL1       -0.0003
     39 C          62.5132   86.5689    9.3115 C.ar    1  UNL1       -0.0042
@<TRIPOS>BOND
     1    21    22    1
     2    22    23   ar
     3    23    24   ar
     4    24    25   ar
     5    25    26   ar
     6    26     1    1
     7     1     2   ar
     8     2     3   ar
     9     3     4    1
    10     3     5   ar
    11     5    27    1
    12    27    28    1
    13    28    29    1
    14    29    30    1
    15    29    33    1
    16    33    34    1
    17    34    35   ar
    18    35    36   ar
    19    36    37   ar
    20    37    38   ar
    21    38    39   ar
    22     5     6   ar
    23     6     7   ar
    24     7    10    1
    25    10    11   ar
    26    11    12   ar
    27    12    13   ar
    28    13    14   ar
    29    14    15   ar
    30    15    16   ar
    31    16    17    1
    32    16    18   ar
    33    18    19   ar
    34    26    22   ar
    35     7     1   ar
    36    19    10   ar
    37    39    34   ar
    38    18    13    1
    39     4     8    1
    40     4     9    1
    41    30    31    1
    42    30    32    1
    43    19    20    1
@<TRIPOS>MOLECULE
*****
 39 43 0 0 0
SMALL
GASTEIGER

@<TRIPOS>ATOM
      1 C          63.3030   87.6081   12.7236 C.ar    1  UNL1        0.0870
      2 N          64.2053   88.2160   13.7563 N.ar    1  UNL1       -0.2279
      3 C          64.4390   89.6976   13.7694 C.ar    1  UNL1        0.1596
      4 N          65.3412   90.3055   14.8020 N.pl3   1  UNL1       -0.3402
      5 C          63.7703   90.5713   12.7497 C.ar    1  UNL1        0.1696
      6 C          62.8681   89.9634   11.7171 C.ar    1  UNL1        0.0428
      7 C          62.6345   88.4818   11.7040 C.ar    1  UNL1        0.0380
      8 H          65.7800   89.7321   15.4712 H       1  UNL1        0.1438
      9 H          65.4945   91.2780   14.8106 H       1  UNL1        0.1438
     10 C          61.7322   87.8739   10.6713 C.ar    1  UNL1        0.0777
     11 C          60.2647   88.1842   10.6814 C.ar    1  UNL1        0.1176
     12 N          59.3624   87.5763    9.6488 N.ar    1  UNL1       -0.2209
     13 C          59.9277   86.6582    8.6060 C.ar    1  UNL1        0.2006
     14 N          59.2892   85.9161    7.4695 N.ar    1  UNL1       -0.1272
     15 N          60.3621   85.1472    6.7569 N.ar    1  UNL1       -0.1493
     16 C          61.6636   85.4141    7.4531 C.ar    1  UNL1        0.0995
     17 C          62.9992   84.8467    7.0731 C.3     1  UNL1        0.0557
     18 C          61.3952   86.3479    8.5958 C.ar    1  UNL1        0.1101
     19 N          62.2975   86.9557    9.6285 N.ar    1  UNL1       -0.3484
     20 H          63.2607   86.7521    9.6218 H       1  UNL1        0.1661
     21 C          63.9738   85.5388   15.1563 C.3     1  UNL1        0.0725
     22 C          63.3777   85.1753   13.8287 C.ar    1  UNL1        0.1248
     23 O          62.9853   83.7968   13.3862 O.2     1  UNL1       -0.4546
     24 C          62.4344   83.8960   11.9946 C.ar    1  UNL1        0.1792
     25 C          62.4864   85.3357   11.5770 C.ar    1  UNL1        0.0448
     26 C          63.0694   86.1264   12.7105 C.ar    1  UNL1        0.0512
     27 O          64.0040   92.0530   12.7628 O.3     1  UNL1       -0.4712
     28 C          65.0287   92.6587   11.8501 C.3     1  UNL1        0.2211
     29 C          66.2028   93.3948   12.4243 C.3     1  UNL1        0.0995
     30 N          67.1789   92.6767   13.3082 N.3     1  UNL1       -0.3190
     31 H          67.9080   93.3247   13.6064 H       1  UNL1        0.1189
     32 H          67.6006   91.9045   12.7921 H       1  UNL1        0.1189
     33 C          66.4007   94.8491   12.1144 C.3     1  UNL1        0.0456
     34 C          66.4192   95.3166   10.6893 C.ar    1  UNL1       -0.0207
     35 C          65.4707   96.3879   10.2389 C.ar    1  UNL1       -0.0042
     36 C          65.4892   96.8553    8.8138 C.ar    1  UNL1       -0.0003
     37 C          66.4562   96.2514    7.8389 C.ar    1  UNL1       -0.0000
     38 C          67.4046   95.1801    8.2892 C.ar    1  UNL1       -0.0003
     39 C          67.3861   94.7127    9.7144 C.ar    1  UNL1       -0.0042
@<TRIPOS>BOND
     1    21    22    1
     2    22    23   ar
     3    23    24   ar
     4    24    25   ar
     5    25    26   ar
     6    26     1    1
     7     1     2   ar
     8     2     3   ar
     9     3     4    1
    10     3     5   ar
    11     5    27    1
    12    27    28    1
    13    28    29    1
    14    29    30    1
    15    29    33    1
    16    33    34    1
    17    34    35   ar
    18    35    36   ar
    19    36    37   ar
    20    37    38   ar
    21    38    39   ar
    22     5     6   ar
    23     6     7   ar
    24     7    10    1
    25    10    11   ar
    26    11    12   ar
    27    12    13   ar
    28    13    14   ar
    29    14    15   ar
    30    15    16   ar
    31    16    17    1
    32    16    18   ar
    33    18    19   ar
    34    26    22   ar
    35     7     1   ar
    36    19    10   ar
    37    39    34   ar
    38    18    13    1
    39     4     8    1
    40     4     9    1
    41    30    31    1
    42    30    32    1
    43    19    20    1
@<TRIPOS>MOLECULE
*****
 39 43 0 0 0
SMALL
GASTEIGER

@<TRIPOS>ATOM
      1 C          63.3408   83.8597   13.1706 C.ar    1  UNL1        0.0870
      2 N          63.7034   83.8972   14.6256 N.ar    1  UNL1       -0.2279
      3 C          63.8853   85.2145   15.3195 C.ar    1  UNL1        0.1596
      4 N          64.2480   85.2521   16.7745 N.pl3   1  UNL1       -0.3402
      5 C          63.7046   86.4944   14.5583 C.ar    1  UNL1        0.1696
      6 C          63.3419   86.4569   13.1033 C.ar    1  UNL1        0.0428
      7 C          63.1600   85.1395   12.4094 C.ar    1  UNL1        0.0380
      8 H          64.3666   84.4121   17.2741 H       1  UNL1        0.1438
      9 H          64.3674   86.1167   17.2299 H       1  UNL1        0.1438
     10 C          62.7974   85.1020   10.9544 C.ar    1  UNL1        0.0777
     11 C          63.6791   84.3785    9.9801 C.ar    1  UNL1        0.1176
     12 N          63.3164   84.3410    8.5251 N.ar    1  UNL1       -0.2209
     13 C          62.0721   85.0269    8.0444 C.ar    1  UNL1        0.2006
     14 N          61.4622   85.1594    6.6804 N.ar    1  UNL1       -0.1272
     15 N          60.2036   85.9648    6.8116 N.ar    1  UNL1       -0.1493
     16 C          60.0356   86.3300    8.2568 C.ar    1  UNL1        0.0995
     17 C          58.9104   87.1337    8.8380 C.3     1  UNL1        0.0557
     18 C          61.1905   85.7504    9.0186 C.ar    1  UNL1        0.1101
     19 N          61.5531   85.7879   10.4736 N.ar    1  UNL1       -0.3484
     20 H          60.9744   86.2628   11.1131 H       1  UNL1        0.1661
     21 C          61.4162   81.4184   14.1633 C.3     1  UNL1        0.0725
     22 C          62.2743   81.4202   12.9330 C.ar    1  UNL1        0.1248
     23 O          62.3983   80.3001   11.9430 O.2     1  UNL1       -0.4546
     24 C          63.3596   80.7300   10.8748 C.ar    1  UNL1        0.1792
     25 C          63.8297   82.1157   11.2047 C.ar    1  UNL1        0.0448
     26 C          63.1589   82.5423   12.4767 C.ar    1  UNL1        0.0512
     27 O          63.8865   87.8118   15.2522 O.3     1  UNL1       -0.4712
     28 C          64.6396   88.9183   14.5752 C.3     1  UNL1        0.2211
     29 C          63.8958   90.0766   13.9793 C.3     1  UNL1        0.0995
     30 N          62.3977   90.0498   13.9090 N.3     1  UNL1       -0.3190
     31 H          62.0621   90.9111   13.4779 H       1  UNL1        0.1189
     32 H          62.0145   89.9692   14.8508 H       1  UNL1        0.1189
     33 C          64.6502   91.2619   13.4537 C.3     1  UNL1        0.0456
     34 C          65.8583   91.7666   14.1855 C.ar    1  UNL1       -0.0207
     35 C          67.1981   91.7668   13.5108 C.ar    1  UNL1       -0.0042
     36 C          68.4063   92.2715   14.2427 C.ar    1  UNL1       -0.0003
     37 C          68.2747   92.7761   15.6492 C.ar    1  UNL1       -0.0000
     38 C          66.9350   92.7759   16.3238 C.ar    1  UNL1       -0.0003
     39 C          65.7268   92.2711   15.5920 C.ar    1  UNL1       -0.0042
@<TRIPOS>BOND
     1    21    22    1
     2    22    23   ar
     3    23    24   ar
     4    24    25   ar
     5    25    26   ar
     6    26     1    1
     7     1     2   ar
     8     2     3   ar
     9     3     4    1
    10     3     5   ar
    11     5    27    1
    12    27    28    1
    13    28    29    1
    14    29    30    1
    15    29    33    1
    16    33    34    1
    17    34    35   ar
    18    35    36   ar
    19    36    37   ar
    20    37    38   ar
    21    38    39   ar
    22     5     6   ar
    23     6     7   ar
    24     7    10    1
    25    10    11   ar
    26    11    12   ar
    27    12    13   ar
    28    13    14   ar
    29    14    15   ar
    30    15    16   ar
    31    16    17    1
    32    16    18   ar
    33    18    19   ar
    34    26    22   ar
    35     7     1   ar
    36    19    10   ar
    37    39    34   ar
    38    18    13    1
    39     4     8    1
    40     4     9    1
    41    30    31    1
    42    30    32    1
    43    19    20    1
@<TRIPOS>MOLECULE
*****
 39 43 0 0 0
SMALL
GASTEIGER

@<TRIPOS>ATOM
      1 C          63.3281   83.9367   13.1481 C.ar    1  UNL1        0.0870
      2 N          63.6899   83.9752   14.6033 N.ar    1  UNL1       -0.2279
      3 C          63.8675   85.2930   15.2974 C.ar    1  UNL1        0.1596
      4 N          64.2293   85.3315   16.7526 N.pl3   1  UNL1       -0.3402
      5 C          63.6834   86.5724   14.5362 C.ar    1  UNL1        0.1696
      6 C          63.3216   86.5339   13.0810 C.ar    1  UNL1        0.0428
      7 C          63.1439   85.2161   12.3870 C.ar    1  UNL1        0.0380
      8 H          64.3502   84.4919   17.2521 H       1  UNL1        0.1438
      9 H          64.3459   86.1965   17.2081 H       1  UNL1        0.1438
     10 C          62.7821   85.1776   10.9317 C.ar    1  UNL1        0.0777
     11 C          63.6863   84.4901    9.9520 C.ar    1  UNL1        0.1176
     12 N          63.3246   84.4516    8.4968 N.ar    1  UNL1       -0.2209
     13 C          62.0586   85.1006    8.0214 C.ar    1  UNL1        0.2006
     14 N          61.4442   85.2234    6.6585 N.ar    1  UNL1       -0.1272
     15 N          60.1603   85.9868    6.7958 N.ar    1  UNL1       -0.1493
     16 C          59.9812   86.3357    8.2436 C.ar    1  UNL1        0.0995
     17 C          58.8308   87.0985    8.8309 C.3     1  UNL1        0.0557
     18 C          61.1544   85.7881    9.0011 C.ar    1  UNL1        0.1101
     19 N          61.5161   85.8266   10.4562 N.ar    1  UNL1       -0.3484
     20 H          60.9227   86.2778   11.0992 H       1  UNL1        0.1661
     21 C          61.4505   81.4697   14.1672 C.3     1  UNL1        0.0725
     22 C          62.2874   81.4849   12.9224 C.ar    1  UNL1        0.1248
     23 O          62.4082   80.3688   11.9276 O.2     1  UNL1       -0.4546
     24 C          63.3459   80.8129   10.8443 C.ar    1  UNL1        0.1792
     25 C          63.8046   82.2035   11.1697 C.ar    1  UNL1        0.0448
     26 C          63.1504   82.6189   12.4540 C.ar    1  UNL1        0.0512
     27 O          63.8610   87.8903   15.2303 O.3     1  UNL1       -0.4712
     28 C          64.6847   88.9691   14.5919 C.3     1  UNL1        0.2211
     29 C          64.1011   90.3354   14.3856 C.3     1  UNL1        0.0995
     30 N          63.5087   91.0808   15.5447 N.3     1  UNL1       -0.3190
     31 H          63.1617   91.9853   15.2256 H       1  UNL1        0.1189
     32 H          64.2234   91.2233   16.2583 H       1  UNL1        0.1189
     33 C          64.1098   90.9564   13.0201 C.3     1  UNL1        0.0456
     34 C          63.0629   90.5747   12.0160 C.ar    1  UNL1       -0.0207
     35 C          61.8246   89.8542   12.4605 C.ar    1  UNL1       -0.0042
     36 C          60.7777   89.4725   11.4564 C.ar    1  UNL1       -0.0003
     37 C          60.9691   89.8114   10.0077 C.ar    1  UNL1       -0.0000
     38 C          62.2073   90.5319    9.5632 C.ar    1  UNL1       -0.0003
     39 C          63.2542   90.9136   10.5674 C.ar    1  UNL1       -0.0042
@<TRIPOS>BOND
     1    21    22    1
     2    22    23   ar
     3    23    24   ar
     4    24    25   ar
     5    25    26   ar
     6    26     1    1
     7     1     2   ar
     8     2     3   ar
     9     3     4    1
    10     3     5   ar
    11     5    27    1
    12    27    28    1
    13    28    29    1
    14    29    30    1
    15    29    33    1
    16    33    34    1
    17    34    35   ar
    18    35    36   ar
    19    36    37   ar
    20    37    38   ar
    21    38    39   ar
    22     5     6   ar
    23     6     7   ar
    24     7    10    1
    25    10    11   ar
    26    11    12   ar
    27    12    13   ar
    28    13    14   ar
    29    14    15   ar
    30    15    16   ar
    31    16    17    1
    32    16    18   ar
    33    18    19   ar
    34    26    22   ar
    35     7     1   ar
    36    19    10   ar
    37    39    34   ar
    38    18    13    1
    39     4     8    1
    40     4     9    1
    41    30    31    1
    42    30    32    1
    43    19    20    1
@<TRIPOS>MOLECULE
*****
 39 43 0 0 0
SMALL
GASTEIGER

@<TRIPOS>ATOM
      1 C          62.9759   88.0112   12.1958 C.ar    1  UNL1        0.0870
      2 N          63.0658   89.4860   11.9372 N.ar    1  UNL1       -0.2279
      3 C          63.7990   90.3729   12.8995 C.ar    1  UNL1        0.1596
      4 N          63.8890   91.8476   12.6409 N.pl3   1  UNL1       -0.3402
      5 C          64.4422   89.7848   14.1204 C.ar    1  UNL1        0.1696
      6 C          64.3523   88.3101   14.3790 C.ar    1  UNL1        0.0428
      7 C          63.6191   87.4232   13.4167 C.ar    1  UNL1        0.0380
      8 H          63.4668   92.2335   11.8396 H       1  UNL1        0.1438
      9 H          64.3702   92.4297   13.2725 H       1  UNL1        0.1438
     10 C          63.5291   85.9484   13.6753 C.ar    1  UNL1        0.0777
     11 C          63.2518   85.4455   15.0611 C.ar    1  UNL1        0.1176
     12 N          63.1619   83.9708   15.3197 N.ar    1  UNL1       -0.2209
     13 C          63.3492   82.9989   14.1927 C.ar    1  UNL1        0.2006
     14 N          63.3169   81.5000   14.1440 N.ar    1  UNL1       -0.1272
     15 N          63.5743   81.0765   12.7283 N.ar    1  UNL1       -0.1493
     16 C          63.7655   82.3137   11.9019 C.ar    1  UNL1        0.0995
     17 C          64.0466   82.3554   10.4291 C.3     1  UNL1        0.0557
     18 C          63.6264   83.5018   12.8070 C.ar    1  UNL1        0.1101
     19 N          63.7164   84.9765   12.5483 N.ar    1  UNL1       -0.3484
     20 H          63.8984   85.3066   11.6388 H       1  UNL1        0.1661
     21 C          59.8069   88.2055   11.4412 C.3     1  UNL1        0.0725
     22 C          60.7861   87.2137   10.8867 C.ar    1  UNL1        0.1248
     23 O          60.4805   86.1370    9.8879 O.2     1  UNL1       -0.4546
     24 C          61.7483   85.3823    9.6175 C.ar    1  UNL1        0.1792
     25 C          62.8373   85.9925   10.4492 C.ar    1  UNL1        0.0448
     26 C          62.2427   87.1244   11.2336 C.ar    1  UNL1        0.0512
     27 O          65.1754   90.6716   15.0827 O.3     1  UNL1       -0.4712
     28 C          65.8128   91.9398   14.5975 C.3     1  UNL1        0.2211
     29 C          67.1905   91.9077   14.0051 C.3     1  UNL1        0.0995
     30 N          68.3910   92.0747   14.8888 N.3     1  UNL1       -0.3190
     31 H          69.2386   92.0270   14.3235 H       1  UNL1        0.1189
     32 H          68.4055   91.3310   15.5867 H       1  UNL1        0.1189
     33 C          67.3678   91.7087   12.5289 C.3     1  UNL1        0.0456
     34 C          67.1479   92.8544   11.5860 C.ar    1  UNL1       -0.0207
     35 C          66.4387   94.0890   12.0582 C.ar    1  UNL1       -0.0042
     36 C          66.2189   95.2346   11.1153 C.ar    1  UNL1       -0.0003
     37 C          66.7082   95.1457    9.7001 C.ar    1  UNL1       -0.0000
     38 C          67.4174   93.9112    9.2279 C.ar    1  UNL1       -0.0003
     39 C          67.6372   92.7655   10.1708 C.ar    1  UNL1       -0.0042
@<TRIPOS>BOND
     1    21    22    1
     2    22    23   ar
     3    23    24   ar
     4    24    25   ar
     5    25    26   ar
     6    26     1    1
     7     1     2   ar
     8     2     3   ar
     9     3     4    1
    10     3     5   ar
    11     5    27    1
    12    27    28    1
    13    28    29    1
    14    29    30    1
    15    29    33    1
    16    33    34    1
    17    34    35   ar
    18    35    36   ar
    19    36    37   ar
    20    37    38   ar
    21    38    39   ar
    22     5     6   ar
    23     6     7   ar
    24     7    10    1
    25    10    11   ar
    26    11    12   ar
    27    12    13   ar
    28    13    14   ar
    29    14    15   ar
    30    15    16   ar
    31    16    17    1
    32    16    18   ar
    33    18    19   ar
    34    26    22   ar
    35     7     1   ar
    36    19    10   ar
    37    39    34   ar
    38    18    13    1
    39     4     8    1
    40     4     9    1
    41    30    31    1
    42    30    32    1
    43    19    20    1
