@<TRIPOS>MOLECULE
*****
 28 30 0 0 0
SMALL
GASTEIGER

@<TRIPOS>ATOM
      1 C          62.3397   86.4799   11.8441 C.ar    1  UNL1        0.0800
      2 C          61.6100   85.9277   10.6555 C.ar    1  UNL1        0.0234
      3 C          61.3024   86.8148    9.4858 C.ar    1  UNL1        0.0720
      4 C          61.7245   88.2541    9.5045 C.ar    1  UNL1        0.0857
      5 N          62.4541   88.8062   10.6931 N.ar    1  UNL1       -0.2917
      6 C          62.9915   90.1738   10.9946 C.ar    1  UNL1        0.0567
      7 C          62.9044   91.3728   10.0974 C.3     1  UNL1        0.0517
      8 C          63.6312   90.1320   12.3507 C.ar    1  UNL1        0.0730
      9 C          64.2962   91.2818   13.0477 C.3     1  UNL1        0.0534
     10 N          63.4892   88.7385   12.8873 N.ar    1  UNL1       -0.2299
     11 C          62.7617   87.9191   11.8628 C.ar    1  UNL1        0.1603
     12 C          60.5727   86.2626    8.2972 C.2     1  UNL1        0.2443
     13 N          59.1060   86.5277    8.1279 N.am    1  UNL1       -0.3253
     14 O          61.3097   85.4454    7.2779 O.2     1  UNL1       -0.2703
     15 H          58.6224   87.0641    8.7969 H       1  UNL1        0.1453
     16 H          58.6271   86.1654    7.3478 H       1  UNL1        0.1453
     17 N          62.6473   85.5928   13.0139 N.pl3   1  UNL1       -0.3267
     18 H          62.1623   85.7112   13.8625 H       1  UNL1        0.1472
     19 C          63.6938   84.5252   12.8908 C.3     1  UNL1        0.1137
     20 C          63.6243   82.2537   11.6317 C.ar    1  UNL1       -0.0248
     21 C          63.2204   80.8101   11.5779 C.ar    1  UNL1       -0.0045
     22 C          62.4820   80.1945   12.7293 C.ar    1  UNL1       -0.0007
     23 C          62.1476   81.0224   13.9346 C.ar    1  UNL1       -0.0045
     24 C          62.5515   82.4659   13.9884 C.ar    1  UNL1       -0.0245
     25 C          62.2170   83.2939   15.1937 C.3     1  UNL1        0.0307
     26 C          63.2899   83.0817   12.8370 C.ar    1  UNL1       -0.0105
     27 C          63.6192   83.6777    9.4586 C.3     1  UNL1        0.0050
     28 C          64.3627   82.8693   10.4803 C.3     1  UNL1        0.0261
@<TRIPOS>BOND
     1    27    28    1
     2    28    20    1
     3    20    21   ar
     4    21    22   ar
     5    22    23   ar
     6    23    24   ar
     7    24    25    1
     8    24    26   ar
     9    26    19    1
    10    19    17    1
    11    17     1    1
    12     1     2   ar
    13     2     3   ar
    14     3    12    1
    15    12    13   am
    16    12    14    2
    17     3     4   ar
    18     4     5   ar
    19     5     6   ar
    20     6     7    1
    21     6     8   ar
    22     8     9    1
    23     8    10   ar
    24    10    11   ar
    25    26    20   ar
    26    11     1   ar
    27    11     5   ar
    28    17    18    1
    29    13    15    1
    30    13    16    1
@<TRIPOS>MOLECULE
*****
 28 30 0 0 0
SMALL
GASTEIGER

@<TRIPOS>ATOM
      1 C          62.0393   86.3786   11.5444 C.ar    1  UNL1        0.0800
      2 C          61.2890   85.8782   10.3459 C.ar    1  UNL1        0.0234
      3 C          60.9959   86.8053    9.2037 C.ar    1  UNL1        0.0720
      4 C          61.4533   88.2327    9.2601 C.ar    1  UNL1        0.0857
      5 N          62.2036   88.7332   10.4586 N.ar    1  UNL1       -0.2917
      6 C          62.7762   90.0782   10.7947 C.ar    1  UNL1        0.0567
      7 C          62.7130   91.3038    9.9322 C.3     1  UNL1        0.0517
      8 C          63.4232   89.9824   12.1446 C.ar    1  UNL1        0.0730
      9 C          64.1205   91.0955   12.8691 C.3     1  UNL1        0.0534
     10 N          63.2504   88.5782   12.6429 N.ar    1  UNL1       -0.2299
     11 C          62.4967   87.8061   11.6008 C.ar    1  UNL1        0.1603
     12 C          60.2455   86.3049    8.0051 C.2     1  UNL1        0.2443
     13 N          58.8116   86.6952    7.8013 N.am    1  UNL1       -0.3253
     14 O          60.9290   85.4142    7.0104 O.2     1  UNL1       -0.2703
     15 H          58.3630   87.2798    8.4541 H       1  UNL1        0.1453
     16 H          58.3191   86.3668    7.0146 H       1  UNL1        0.1453
     17 N          62.3324   85.4516   12.6867 N.pl3   1  UNL1       -0.3267
     18 H          61.7793   85.4831   13.5006 H       1  UNL1        0.1472
     19 C          63.4681   84.4765   12.5889 C.3     1  UNL1        0.1137
     20 C          62.6349   82.2381   13.6112 C.ar    1  UNL1       -0.0248
     21 C          62.3542   80.7711   13.4717 C.ar    1  UNL1       -0.0045
     22 C          62.6258   80.0759   12.1707 C.ar    1  UNL1       -0.0007
     23 C          63.1781   80.8475   11.0090 C.ar    1  UNL1       -0.0045
     24 C          63.4589   82.3144   11.1484 C.ar    1  UNL1       -0.0245
     25 C          64.0113   83.0860    9.9867 C.3     1  UNL1        0.0307
     26 C          63.1873   83.0097   12.4495 C.ar    1  UNL1       -0.0105
     27 C          63.4848   83.5935   15.6582 C.3     1  UNL1        0.0050
     28 C          62.3633   82.9333   14.9123 C.3     1  UNL1        0.0261
@<TRIPOS>BOND
     1    27    28    1
     2    28    20    1
     3    20    21   ar
     4    21    22   ar
     5    22    23   ar
     6    23    24   ar
     7    24    25    1
     8    24    26   ar
     9    26    19    1
    10    19    17    1
    11    17     1    1
    12     1     2   ar
    13     2     3   ar
    14     3    12    1
    15    12    13   am
    16    12    14    2
    17     3     4   ar
    18     4     5   ar
    19     5     6   ar
    20     6     7    1
    21     6     8   ar
    22     8     9    1
    23     8    10   ar
    24    10    11   ar
    25    26    20   ar
    26    11     1   ar
    27    11     5   ar
    28    17    18    1
    29    13    15    1
    30    13    16    1
@<TRIPOS>MOLECULE
*****
 28 30 0 0 0
SMALL
GASTEIGER

@<TRIPOS>ATOM
      1 C          63.7834   87.1597   13.8724 C.ar    1  UNL1        0.0800
      2 C          64.3379   88.3289   14.6310 C.ar    1  UNL1        0.0234
      3 C          64.2027   89.7156   14.0753 C.ar    1  UNL1        0.0720
      4 C          63.5131   89.9331   12.7612 C.ar    1  UNL1        0.0857
      5 N          62.9586   88.7639   12.0026 N.ar    1  UNL1       -0.2917
      6 C          62.2336   88.6698   10.6928 C.ar    1  UNL1        0.0567
      7 C          61.8831   89.8189    9.7946 C.3     1  UNL1        0.0517
      8 C          61.9207   87.2249   10.4389 C.ar    1  UNL1        0.0730
      9 C          61.2024   86.6754    9.2422 C.3     1  UNL1        0.0534
     10 N          62.4523   86.4260   11.5918 N.ar    1  UNL1       -0.2299
     11 C          63.0937   87.3772   12.5582 C.ar    1  UNL1        0.1603
     12 C          64.7573   90.8849   14.8339 C.2     1  UNL1        0.2443
     13 N          66.1779   91.3145   14.6163 N.am    1  UNL1       -0.3253
     14 O          63.8912   91.6245   15.8100 O.2     1  UNL1       -0.2703
     15 H          66.7463   90.8290   13.9756 H       1  UNL1        0.1453
     16 H          66.5418   92.0819   15.1141 H       1  UNL1        0.1453
     17 N          63.9185   85.7729   14.4280 N.pl3   1  UNL1       -0.3267
     18 H          63.6960   85.5965   15.3707 H       1  UNL1        0.1472
     19 C          64.3927   84.6551   13.5474 C.3     1  UNL1        0.1137
     20 C          63.6354   82.5979   12.1528 C.ar    1  UNL1       -0.0248
     21 C          62.8166   81.3480   12.0211 C.ar    1  UNL1       -0.0045
     22 C          61.9363   80.9054   13.1521 C.ar    1  UNL1       -0.0007
     23 C          61.8748   81.7127   14.4148 C.ar    1  UNL1       -0.0045
     24 C          62.6935   82.9625   14.5466 C.ar    1  UNL1       -0.0245
     25 C          62.6320   83.7698   15.8094 C.3     1  UNL1        0.0307
     26 C          63.5739   83.4052   13.4156 C.ar    1  UNL1       -0.0105
     27 C          63.9047   83.5806    9.7629 C.3     1  UNL1        0.0050
     28 C          64.5157   83.0405   11.0219 C.3     1  UNL1        0.0261
@<TRIPOS>BOND
     1    27    28    1
     2    28    20    1
     3    20    21   ar
     4    21    22   ar
     5    22    23   ar
     6    23    24   ar
     7    24    25    1
     8    24    26   ar
     9    26    19    1
    10    19    17    1
    11    17     1    1
    12     1     2   ar
    13     2     3   ar
    14     3    12    1
    15    12    13   am
    16    12    14    2
    17     3     4   ar
    18     4     5   ar
    19     5     6   ar
    20     6     7    1
    21     6     8   ar
    22     8     9    1
    23     8    10   ar
    24    10    11   ar
    25    26    20   ar
    26    11     1   ar
    27    11     5   ar
    28    17    18    1
    29    13    15    1
    30    13    16    1
@<TRIPOS>MOLECULE
*****
 28 30 0 0 0
SMALL
GASTEIGER

@<TRIPOS>ATOM
      1 C          62.9686   87.5502   12.2105 C.ar    1  UNL1        0.0800
      2 C          62.2433   87.8498   10.9322 C.ar    1  UNL1        0.0234
      3 C          61.6692   86.7303   10.1155 C.ar    1  UNL1        0.0720
      4 C          61.8204   85.3111   10.5770 C.ar    1  UNL1        0.0857
      5 N          62.5458   85.0115   11.8553 N.ar    1  UNL1       -0.2917
      6 C          62.8497   83.7217   12.5583 C.ar    1  UNL1        0.0567
      7 C          62.4601   82.3504   12.0919 C.3     1  UNL1        0.0517
      8 C          63.6117   84.0442   13.8095 C.ar    1  UNL1        0.0730
      9 C          64.1178   83.0517   14.8140 C.3     1  UNL1        0.0534
     10 N          63.7786   85.5332   13.8798 N.ar    1  UNL1       -0.2299
     11 C          63.1199   86.1310   12.6720 C.ar    1  UNL1        0.1603
     12 C          60.9438   87.0300    8.8371 C.2     1  UNL1        0.2443
     13 N          60.2248   88.3359    8.6712 N.am    1  UNL1       -0.3253
     14 O          60.9375   86.0237    7.7248 O.2     1  UNL1       -0.2703
     15 H          60.2289   88.9963    9.4013 H       1  UNL1        0.1453
     16 H          59.7487   88.5326    7.8322 H       1  UNL1        0.1453
     17 N          63.5428   88.6697   13.0272 N.pl3   1  UNL1       -0.3267
     18 H          64.1957   88.4758   13.7381 H       1  UNL1        0.1472
     19 C          63.1220   90.0846   12.7609 C.3     1  UNL1        0.1137
     20 C          65.1535   91.5405   13.4706 C.ar    1  UNL1       -0.0248
     21 C          66.1838   92.5805   13.1435 C.ar    1  UNL1       -0.0045
     22 C          66.2130   93.2044   11.7798 C.ar    1  UNL1       -0.0007
     23 C          65.2119   92.7885   10.7431 C.ar    1  UNL1       -0.0045
     24 C          64.1816   91.7486   11.0701 C.ar    1  UNL1       -0.0245
     25 C          63.1804   91.3326   10.0334 C.3     1  UNL1        0.0307
     26 C          64.1523   91.1245   12.4339 C.ar    1  UNL1       -0.0105
     27 C          64.2960   91.5318   15.9231 C.3     1  UNL1        0.0050
     28 C          65.1243   90.9165   14.8343 C.3     1  UNL1        0.0261
@<TRIPOS>BOND
     1    27    28    1
     2    28    20    1
     3    20    21   ar
     4    21    22   ar
     5    22    23   ar
     6    23    24   ar
     7    24    25    1
     8    24    26   ar
     9    26    19    1
    10    19    17    1
    11    17     1    1
    12     1     2   ar
    13     2     3   ar
    14     3    12    1
    15    12    13   am
    16    12    14    2
    17     3     4   ar
    18     4     5   ar
    19     5     6   ar
    20     6     7    1
    21     6     8   ar
    22     8     9    1
    23     8    10   ar
    24    10    11   ar
    25    26    20   ar
    26    11     1   ar
    27    11     5   ar
    28    17    18    1
    29    13    15    1
    30    13    16    1
@<TRIPOS>MOLECULE
*****
 28 30 0 0 0
SMALL
GASTEIGER

@<TRIPOS>ATOM
      1 C          63.3122   90.3834   11.7977 C.ar    1  UNL1        0.0800
      2 C          63.0606   89.6271   13.0683 C.ar    1  UNL1        0.0234
      3 C          63.7653   90.0263   14.3308 C.ar    1  UNL1        0.0720
      4 C          64.7216   91.1819   14.3227 C.ar    1  UNL1        0.0857
      5 N          64.9732   91.9383   13.0521 N.ar    1  UNL1       -0.2917
      6 C          65.8542   93.1115   12.7400 C.ar    1  UNL1        0.0567
      7 C          66.7399   93.8323   13.7126 C.3     1  UNL1        0.0517
      8 C          65.6940   93.4374   11.2846 C.ar    1  UNL1        0.0730
      9 C          66.3915   94.5413   10.5463 C.3     1  UNL1        0.0534
     10 N          64.7140   92.4655   10.6971 N.ar    1  UNL1       -0.2299
     11 C          64.2685   91.5390   11.7896 C.ar    1  UNL1        0.1603
     12 C          63.5137   89.2700   15.6016 C.2     1  UNL1        0.2443
     13 N          63.1010   90.0047   16.8425 N.am    1  UNL1       -0.3253
     14 O          63.6749   87.7790   15.6313 O.2     1  UNL1       -0.2703
     15 H          62.9952   90.9833   16.8229 H       1  UNL1        0.1453
     16 H          62.9358   89.5083   17.6765 H       1  UNL1        0.1453
     17 N          62.6075   89.9842   10.5351 N.pl3   1  UNL1       -0.3267
     18 H          63.0124   90.1857    9.6606 H       1  UNL1        0.1472
     19 C          61.2861   89.2780   10.6049 C.3     1  UNL1        0.1137
     20 C          61.5515   86.7684    9.9874 C.ar    1  UNL1       -0.0248
     21 C          61.2650   85.6201    9.0657 C.ar    1  UNL1       -0.0045
     22 C          60.4269   85.8331    7.8401 C.ar    1  UNL1       -0.0007
     23 C          59.8752   87.1944    7.5361 C.ar    1  UNL1       -0.0045
     24 C          60.1615   88.3427    8.4577 C.ar    1  UNL1       -0.0245
     25 C          59.6098   89.7040    8.1537 C.3     1  UNL1        0.0307
     26 C          60.9997   88.1297    9.6834 C.ar    1  UNL1       -0.0105
     27 C          62.3292   85.2474   11.9448 C.3     1  UNL1        0.0050
     28 C          62.3896   86.5554   11.2129 C.3     1  UNL1        0.0261
@<TRIPOS>BOND
     1    27    28    1
     2    28    20    1
     3    20    21   ar
     4    21    22   ar
     5    22    23   ar
     6    23    24   ar
     7    24    25    1
     8    24    26   ar
     9    26    19    1
    10    19    17    1
    11    17     1    1
    12     1     2   ar
    13     2     3   ar
    14     3    12    1
    15    12    13   am
    16    12    14    2
    17     3     4   ar
    18     4     5   ar
    19     5     6   ar
    20     6     7    1
    21     6     8   ar
    22     8     9    1
    23     8    10   ar
    24    10    11   ar
    25    26    20   ar
    26    11     1   ar
    27    11     5   ar
    28    17    18    1
    29    13    15    1
    30    13    16    1
@<TRIPOS>MOLECULE
*****
 28 30 0 0 0
SMALL
GASTEIGER

@<TRIPOS>ATOM
      1 C          63.1992   90.3944   11.8573 C.ar    1  UNL1        0.0800
      2 C          62.9540   89.6548   13.1391 C.ar    1  UNL1        0.0234
      3 C          63.7186   90.0235   14.3757 C.ar    1  UNL1        0.0720
      4 C          64.7284   91.1318   14.3307 C.ar    1  UNL1        0.0857
      5 N          64.9736   91.8714   13.0490 N.ar    1  UNL1       -0.2917
      6 C          65.8989   93.0000   12.7026 C.ar    1  UNL1        0.0567
      7 C          66.8500   93.6803   13.6420 C.3     1  UNL1        0.0517
      8 C          65.7062   93.3288   11.2518 C.ar    1  UNL1        0.0730
      9 C          66.4308   94.3957   10.4857 C.3     1  UNL1        0.0534
     10 N          64.6618   92.4034   10.7015 N.ar    1  UNL1       -0.2299
     11 C          64.2090   91.5027   11.8123 C.ar    1  UNL1        0.1603
     12 C          63.4734   89.2839   15.6575 C.2     1  UNL1        0.2443
     13 N          63.0390   90.0313   16.8834 N.am    1  UNL1       -0.3253
     14 O          63.6627   87.7969   15.7135 O.2     1  UNL1       -0.2703
     15 H          62.9148   91.0072   16.8466 H       1  UNL1        0.1453
     16 H          62.8781   89.5459   17.7246 H       1  UNL1        0.1453
     17 N          62.4346   90.0257   10.6206 N.pl3   1  UNL1       -0.3267
     18 H          62.7046   90.3917    9.7475 H       1  UNL1        0.1472
     19 C          61.2586   89.0992   10.7142 C.3     1  UNL1        0.1137
     20 C          60.4355   87.9481    8.5353 C.ar    1  UNL1       -0.0248
     21 C          60.3631   86.7366    7.6537 C.ar    1  UNL1       -0.0045
     22 C          61.0413   85.4649    8.0694 C.ar    1  UNL1       -0.0007
     23 C          61.7919   85.4046    9.3667 C.ar    1  UNL1       -0.0045
     24 C          61.8644   86.6160   10.2483 C.ar    1  UNL1       -0.0245
     25 C          62.6150   86.5557   11.5456 C.3     1  UNL1        0.0307
     26 C          61.1862   87.8878    9.8326 C.ar    1  UNL1       -0.0105
     27 C          59.3452   89.4176    6.6910 C.3     1  UNL1        0.0050
     28 C          59.7574   89.2198    8.1196 C.3     1  UNL1        0.0261
@<TRIPOS>BOND
     1    27    28    1
     2    28    20    1
     3    20    21   ar
     4    21    22   ar
     5    22    23   ar
     6    23    24   ar
     7    24    25    1
     8    24    26   ar
     9    26    19    1
    10    19    17    1
    11    17     1    1
    12     1     2   ar
    13     2     3   ar
    14     3    12    1
    15    12    13   am
    16    12    14    2
    17     3     4   ar
    18     4     5   ar
    19     5     6   ar
    20     6     7    1
    21     6     8   ar
    22     8     9    1
    23     8    10   ar
    24    10    11   ar
    25    26    20   ar
    26    11     1   ar
    27    11     5   ar
    28    17    18    1
    29    13    15    1
    30    13    16    1
@<TRIPOS>MOLECULE
*****
 28 30 0 0 0
SMALL
GASTEIGER

@<TRIPOS>ATOM
      1 C          62.2607   87.4448   11.7369 C.ar    1  UNL1        0.0800
      2 C          63.0499   88.6441   12.1715 C.ar    1  UNL1        0.0234
      3 C          62.9575   89.9243   11.3954 C.ar    1  UNL1        0.0720
      4 C          62.0758   90.0053   10.1846 C.ar    1  UNL1        0.0857
      5 N          61.2866   88.8060    9.7499 N.ar    1  UNL1       -0.2917
      6 C          60.3406   88.5876    8.6065 C.ar    1  UNL1        0.0567
      7 C          59.9545   89.6057    7.5748 C.3     1  UNL1        0.0517
      8 C          59.8483   87.1724    8.6760 C.ar    1  UNL1        0.0730
      9 C          58.8836   86.5267    7.7259 C.3     1  UNL1        0.0534
     10 N          60.4902   86.5161    9.8623 N.ar    1  UNL1       -0.2299
     11 C          61.3791   87.5258   10.5260 C.ar    1  UNL1        0.1603
     12 C          63.7467   91.1236   11.8301 C.2     1  UNL1        0.2443
     13 N          64.5110   91.9252   10.8186 N.am    1  UNL1       -0.3253
     14 O          63.7715   91.5212   13.2762 O.2     1  UNL1       -0.2703
     15 H          64.4947   91.6643    9.8694 H       1  UNL1        0.1453
     16 H          65.0290   92.7124   11.1038 H       1  UNL1        0.1453
     17 N          62.3532   86.1645   12.5130 N.pl3   1  UNL1       -0.3267
     18 H          61.6755   85.9522   13.1949 H       1  UNL1        0.1472
     19 C          63.4781   85.2077   12.2502 C.3     1  UNL1        0.1137
     20 C          63.5140   82.9133   11.0318 C.ar    1  UNL1       -0.0248
     21 C          63.2582   81.4353   11.0376 C.ar    1  UNL1       -0.0045
     22 C          62.7109   80.7736   12.2674 C.ar    1  UNL1       -0.0007
     23 C          62.4193   81.5900   13.4916 C.ar    1  UNL1       -0.0045
     24 C          62.6750   83.0680   13.4858 C.ar    1  UNL1       -0.0245
     25 C          62.3834   83.8844   14.7100 C.3     1  UNL1        0.0307
     26 C          63.2224   83.7297   12.2559 C.ar    1  UNL1       -0.0105
     27 C          63.1784   84.4552    8.9678 C.3     1  UNL1        0.0050
     28 C          64.0613   83.5750    9.8019 C.3     1  UNL1        0.0261
@<TRIPOS>BOND
     1    27    28    1
     2    28    20    1
     3    20    21   ar
     4    21    22   ar
     5    22    23   ar
     6    23    24   ar
     7    24    25    1
     8    24    26   ar
     9    26    19    1
    10    19    17    1
    11    17     1    1
    12     1     2   ar
    13     2     3   ar
    14     3    12    1
    15    12    13   am
    16    12    14    2
    17     3     4   ar
    18     4     5   ar
    19     5     6   ar
    20     6     7    1
    21     6     8   ar
    22     8     9    1
    23     8    10   ar
    24    10    11   ar
    25    26    20   ar
    26    11     1   ar
    27    11     5   ar
    28    17    18    1
    29    13    15    1
    30    13    16    1
@<TRIPOS>MOLECULE
*****
 28 30 0 0 0
SMALL
GASTEIGER

@<TRIPOS>ATOM
      1 C          62.3193   87.4581   11.7136 C.ar    1  UNL1        0.0800
      2 C          63.0942   88.6695   12.1403 C.ar    1  UNL1        0.0234
      3 C          62.9745   89.9478   11.3648 C.ar    1  UNL1        0.0720
      4 C          62.0800   90.0148   10.1626 C.ar    1  UNL1        0.0857
      5 N          61.3051   88.8034    9.7359 N.ar    1  UNL1       -0.2917
      6 C          60.3515   88.5700    8.6019 C.ar    1  UNL1        0.0567
      7 C          59.9398   89.5816    7.5737 C.3     1  UNL1        0.0517
      8 C          59.8818   87.1474    8.6765 C.ar    1  UNL1        0.0730
      9 C          58.9179   86.4866    7.7360 C.3     1  UNL1        0.0534
     10 N          60.5451   86.5015    9.8567 N.ar    1  UNL1       -0.2299
     11 C          61.4248   87.5251   10.5114 C.ar    1  UNL1        0.1603
     12 C          63.7494   91.1593   11.7915 C.2     1  UNL1        0.2443
     13 N          64.4969   91.9684   10.7733 N.am    1  UNL1       -0.3253
     14 O          63.7768   91.5616   13.2362 O.2     1  UNL1       -0.2703
     15 H          64.4790   91.7043    9.8251 H       1  UNL1        0.1453
     16 H          65.0055   92.7635   11.0533 H       1  UNL1        0.1453
     17 N          62.4390   86.1797   12.4892 N.pl3   1  UNL1       -0.3267
     18 H          61.8499   86.0149   13.2605 H       1  UNL1        0.1472
     19 C          63.4563   85.1524   12.0894 C.3     1  UNL1        0.1137
     20 C          62.6674   83.2126   13.6272 C.ar    1  UNL1       -0.0248
     21 C          62.3837   81.7547   13.8374 C.ar    1  UNL1       -0.0045
     22 C          62.6053   80.7788   12.7200 C.ar    1  UNL1       -0.0007
     23 C          63.1105   81.2608   11.3924 C.ar    1  UNL1       -0.0045
     24 C          63.3942   82.7186   11.1822 C.ar    1  UNL1       -0.0245
     25 C          63.8994   83.2006    9.8546 C.3     1  UNL1        0.0307
     26 C          63.1726   83.6946   12.2996 C.ar    1  UNL1       -0.0105
     27 C          63.6073   84.6648   15.5657 C.3     1  UNL1        0.0050
     28 C          62.4459   84.1885   14.7446 C.3     1  UNL1        0.0261
@<TRIPOS>BOND
     1    27    28    1
     2    28    20    1
     3    20    21   ar
     4    21    22   ar
     5    22    23   ar
     6    23    24   ar
     7    24    25    1
     8    24    26   ar
     9    26    19    1
    10    19    17    1
    11    17     1    1
    12     1     2   ar
    13     2     3   ar
    14     3    12    1
    15    12    13   am
    16    12    14    2
    17     3     4   ar
    18     4     5   ar
    19     5     6   ar
    20     6     7    1
    21     6     8   ar
    22     8     9    1
    23     8    10   ar
    24    10    11   ar
    25    26    20   ar
    26    11     1   ar
    27    11     5   ar
    28    17    18    1
    29    13    15    1
    30    13    16    1
@<TRIPOS>MOLECULE
*****
 28 30 0 0 0
SMALL
GASTEIGER

@<TRIPOS>ATOM
      1 C          62.4466   89.0553   10.7794 C.ar    1  UNL1        0.0800
      2 C          62.8756   87.9168   11.6567 C.ar    1  UNL1        0.0234
      3 C          62.2951   86.5495   11.4484 C.ar    1  UNL1        0.0720
      4 C          61.2856   86.3207   10.3628 C.ar    1  UNL1        0.0857
      5 N          60.8567   87.4591    9.4854 N.ar    1  UNL1       -0.2917
      6 C          59.8875   87.5361    8.3432 C.ar    1  UNL1        0.0567
      7 C          59.0788   86.3980    7.7949 C.3     1  UNL1        0.0517
      8 C          59.8690   88.9511    7.8455 C.ar    1  UNL1        0.0730
      9 C          59.0384   89.4763    6.7121 C.3     1  UNL1        0.0534
     10 N          60.8267   89.7486    8.6802 N.ar    1  UNL1       -0.2299
     11 C          61.4372   88.8264    9.6937 C.ar    1  UNL1        0.1603
     12 C          62.7240   85.4109   12.3258 C.2     1  UNL1        0.2443
     13 N          62.6142   83.9995   11.8301 N.am    1  UNL1       -0.3253
     14 O          63.2628   85.6838   13.6989 O.2     1  UNL1       -0.2703
     15 H          62.2606   83.8203   10.9289 H       1  UNL1        0.1453
     16 H          62.8957   83.2522   12.4059 H       1  UNL1        0.1453
     17 N          63.0271   90.4227   10.9876 N.pl3   1  UNL1       -0.3267
     18 H          63.3267   90.9533   10.2144 H       1  UNL1        0.1472
     19 C          63.1512   90.9816   12.3741 C.3     1  UNL1        0.1137
     20 C          65.4468   92.1912   12.2454 C.ar    1  UNL1       -0.0248
     21 C          66.8028   92.4694   12.8235 C.ar    1  UNL1       -0.0045
     22 C          67.2189   91.8162   14.1080 C.ar    1  UNL1       -0.0007
     23 C          66.2791   90.8848   14.8146 C.ar    1  UNL1       -0.0045
     24 C          64.9232   90.6066   14.2367 C.ar    1  UNL1       -0.0245
     25 C          63.9835   89.6752   14.9433 C.3     1  UNL1        0.0307
     26 C          64.5071   91.2598   12.9520 C.ar    1  UNL1       -0.0105
     27 C          65.6105   94.1722   10.5725 C.3     1  UNL1        0.0050
     28 C          65.0307   92.8444   10.9609 C.3     1  UNL1        0.0261
@<TRIPOS>BOND
     1    27    28    1
     2    28    20    1
     3    20    21   ar
     4    21    22   ar
     5    22    23   ar
     6    23    24   ar
     7    24    25    1
     8    24    26   ar
     9    26    19    1
    10    19    17    1
    11    17     1    1
    12     1     2   ar
    13     2     3   ar
    14     3    12    1
    15    12    13   am
    16    12    14    2
    17     3     4   ar
    18     4     5   ar
    19     5     6   ar
    20     6     7    1
    21     6     8   ar
    22     8     9    1
    23     8    10   ar
    24    10    11   ar
    25    26    20   ar
    26    11     1   ar
    27    11     5   ar
    28    17    18    1
    29    13    15    1
    30    13    16    1
