@<TRIPOS>MOLECULE
*****
 51 55 0 0 0
SMALL
GASTEIGER

@<TRIPOS>ATOM
      1 C          61.1383   88.7381    9.4640 C.3     1  UNL1        0.0964
      2 C          60.3569   89.9360    9.0121 C.3     1  UNL1        0.0780
      3 N          59.3919   89.8148    7.8700 N.3     1  UNL1       -0.2970
      4 C          59.2084   88.4957    7.1800 C.3     1  UNL1        0.0689
      5 C          59.9898   87.2977    7.6319 C.3     1  UNL1        0.0220
      6 C          60.9547   87.4189    8.7739 C.3     1  UNL1        0.0337
      7 H          59.6933   90.4802    7.1581 H       1  UNL1        0.1233
      8 C          61.7361   86.2209    9.2259 C.ar    1  UNL1       -0.0217
      9 C          62.6848   85.5442    8.2813 C.ar    1  UNL1       -0.0012
     10 C          63.4662   84.3463    8.7332 C.ar    1  UNL1        0.0366
     11 C          63.2990   83.8250   10.1297 C.ar    1  UNL1        0.1387
     12 C          62.3504   84.5016   11.0743 C.ar    1  UNL1        0.0366
     13 C          61.5689   85.6996   10.6224 C.ar    1  UNL1       -0.0012
     14 O          64.0804   82.6270   10.5817 O.3     1  UNL1       -0.4714
     15 C          63.4563   81.6333   11.5161 C.3     1  UNL1        0.2525
     16 C          63.7568   81.6932   12.9844 C.3     1  UNL1        0.2525
     17 O          64.6130   82.7972   13.5303 O.3     1  UNL1       -0.4697
     18 C          64.0474   83.7594   14.5325 C.ar    1  UNL1        0.1596
     19 C          64.8585   84.9391   14.9802 C.ar    1  UNL1        0.0921
     20 CL         66.2352   85.1567   14.4258 Cl      1  UNL1       -0.0791
     21 C          64.2928   85.9013   15.9823 C.ar    1  UNL1        0.0103
     22 C          62.9161   85.6838   16.5367 C.ar    1  UNL1       -0.0200
     23 C          62.3505   86.6459   17.5389 C.3     1  UNL1        0.0311
     24 C          62.1051   84.5040   16.0890 C.ar    1  UNL1        0.0103
     25 C          62.6707   83.5419   15.0869 C.ar    1  UNL1        0.0921
     26 CL         61.8596   82.3621   14.6391 Cl      1  UNL1       -0.0791
     27 N          61.6283   89.3542   11.9399 N.am    1  UNL1       -0.2770
     28 C          62.1032   88.8592   10.6060 C.2     1  UNL1        0.2270
     29 O          63.5432   88.4854   10.4140 O.2     1  UNL1       -0.2748
     30 C          60.1883   89.7280   12.1318 C.3     1  UNL1        0.0758
     31 C          59.0534   90.6832   11.9092 C.3     1  UNL1        0.0215
     32 C          58.8292   89.4203   12.6868 C.3     1  UNL1        0.0215
     33 C          62.5932   89.4753   13.0819 C.3     1  UNL1        0.1201
     34 C          65.4051   91.9805   14.3340 C.ar    1  UNL1       -0.0194
     35 C          64.3713   90.8936   14.3377 C.ar    1  UNL1       -0.0067
     36 C          63.6269   90.5622   13.0783 C.ar    1  UNL1        0.0004
     37 C          63.9164   91.3178   11.8151 C.ar    1  UNL1        0.0343
     38 C          64.9501   92.4047   11.8115 C.ar    1  UNL1        0.1381
     39 C          65.6944   92.7360   13.0709 C.ar    1  UNL1        0.0326
     40 O          65.2395   93.1602   10.5484 O.3     1  UNL1       -0.4730
     41 C          65.7926   94.5528   10.6174 C.3     1  UNL1        0.2318
     42 C          66.9244   94.9557    9.7192 C.3     1  UNL1        0.1286
     43 C          67.3151   93.5157    9.5656 C.3     1  UNL1        0.0332
     44 C          66.5336   96.3957    9.8727 C.3     1  UNL1        0.0332
     45 O          68.0561   95.3586    8.8209 O.3     1  UNL1       -0.3831
     46 H          68.5383   94.5675    8.5337 H       1  UNL1        0.2104
     47 C          66.1494   92.3119   15.5934 C.3     1  UNL1        0.0290
     48 C          67.6099   91.9895   15.7083 C.3     1  UNL1        0.0367
     49 C          68.6272   92.8743   15.0509 C.3     1  UNL1        0.1426
     50 C          68.8560   91.6775   12.7563 C.3     1  UNL1        0.1741
     51 O          69.4880   92.3358   13.9468 O.3     1  UNL1       -0.3511
@<TRIPOS>BOND
     1    50    51    1
     2    51    49    1
     3    49    48    1
     4    48    47    1
     5    47    34    1
     6    34    35   ar
     7    35    36   ar
     8    36    33    1
     9    33    27    1
    10    27    28   am
    11    28    29    2
    12     1    28    1
    13     1     2    1
    14     2     3    1
    15     3     4    1
    16     4     5    1
    17     5     6    1
    18     6     8    1
    19     8     9   ar
    20     9    10   ar
    21    10    11   ar
    22    11    14    1
    23    14    15    1
    24    15    16    1
    25    16    17    1
    26    17    18    1
    27    18    19   ar
    28    19    20    1
    29    19    21   ar
    30    21    22   ar
    31    22    23    1
    32    22    24   ar
    33    24    25   ar
    34    25    26    1
    35    11    12   ar
    36    12    13   ar
    37    27    30    1
    38    30    31    1
    39    31    32    1
    40    36    37   ar
    41    37    38   ar
    42    38    40    1
    43    40    41    1
    44    41    42    1
    45    42    43    1
    46    42    44    1
    47    42    45    1
    48    38    39   ar
    49    39    34   ar
    50     6     1    1
    51    13     8   ar
    52    32    30    1
    53    25    18   ar
    54     3     7    1
    55    45    46    1
@<TRIPOS>MOLECULE
*****
 51 55 0 0 0
SMALL
GASTEIGER

@<TRIPOS>ATOM
      1 C          61.1031   88.7117    9.4618 C.3     1  UNL1        0.0964
      2 C          60.3066   89.8970    9.0028 C.3     1  UNL1        0.0780
      3 N          59.3483   89.7586    7.8572 N.3     1  UNL1       -0.2970
      4 C          59.1864   88.4348    7.1706 C.3     1  UNL1        0.0689
      5 C          59.9829   87.2494    7.6296 C.3     1  UNL1        0.0220
      6 C          60.9412   87.3879    8.7752 C.3     1  UNL1        0.0337
      7 H          59.6432   90.4259    7.1444 H       1  UNL1        0.1233
      8 C          61.7376   86.2026    9.2342 C.ar    1  UNL1       -0.0217
      9 C          61.5738   85.6848   10.6325 C.ar    1  UNL1       -0.0012
     10 C          62.3702   84.4995   11.0915 C.ar    1  UNL1        0.0366
     11 C          63.3305   83.8319   10.1523 C.ar    1  UNL1        0.1387
     12 C          63.4943   84.3495    8.7540 C.ar    1  UNL1        0.0366
     13 C          62.6978   85.5349    8.2949 C.ar    1  UNL1       -0.0012
     14 O          64.1269   82.6466   10.6112 O.3     1  UNL1       -0.4714
     15 C          63.5201   81.6580   11.5623 C.3     1  UNL1        0.2525
     16 C          63.8203   81.7469   13.0292 C.3     1  UNL1        0.2525
     17 O          64.6524   82.8777   13.5572 O.3     1  UNL1       -0.4697
     18 C          64.0737   83.8290   14.5625 C.ar    1  UNL1        0.1596
     19 C          62.6831   83.6158   15.0829 C.ar    1  UNL1        0.0921
     20 CL         61.8712   82.4515   14.5981 Cl      1  UNL1       -0.0791
     21 C          62.1045   84.5671   16.0881 C.ar    1  UNL1        0.0103
     22 C          62.9165   85.7314   16.5729 C.ar    1  UNL1       -0.0200
     23 C          62.3379   86.6826   17.5780 C.3     1  UNL1        0.0311
     24 C          64.3071   85.9445   16.0524 C.ar    1  UNL1        0.0103
     25 C          64.8857   84.9933   15.0472 C.ar    1  UNL1        0.0921
     26 CL         66.2763   85.2064   14.5268 Cl      1  UNL1       -0.0791
     27 N          61.5757   89.3511   11.9352 N.am    1  UNL1       -0.2770
     28 C          62.0614   88.8501   10.6074 C.2     1  UNL1        0.2270
     29 O          63.5055   88.4875   10.4252 O.2     1  UNL1       -0.2748
     30 C          60.1317   89.7137   12.1174 C.3     1  UNL1        0.0758
     31 C          59.0026   90.6838   11.9325 C.3     1  UNL1        0.0215
     32 C          58.7596   89.3717   12.6177 C.3     1  UNL1        0.0215
     33 C          62.5340   89.4895   13.0808 C.3     1  UNL1        0.1201
     34 C          65.4659   91.9002   14.2398 C.ar    1  UNL1       -0.0194
     35 C          64.4008   90.8445   14.2763 C.ar    1  UNL1       -0.0067
     36 C          63.5990   90.5452   13.0444 C.ar    1  UNL1        0.0004
     37 C          63.8623   91.3015   11.7760 C.ar    1  UNL1        0.0343
     38 C          64.9273   92.3572   11.7396 C.ar    1  UNL1        0.1381
     39 C          65.7291   92.6565   12.9715 C.ar    1  UNL1        0.0326
     40 O          65.1906   93.1135   10.4712 O.3     1  UNL1       -0.4730
     41 C          65.7257   94.5135   10.5301 C.3     1  UNL1        0.2318
     42 C          66.8195   94.9383    9.5957 C.3     1  UNL1        0.1286
     43 C          66.1932   96.2964    9.4800 C.3     1  UNL1        0.0332
     44 C          67.4458   93.5802    9.7114 C.3     1  UNL1        0.0332
     45 O          67.9133   95.3631    8.6612 O.3     1  UNL1       -0.3831
     46 H          67.7672   96.2827    8.3893 H       1  UNL1        0.2104
     47 C          66.2676   92.1995   15.4717 C.3     1  UNL1        0.0290
     48 C          67.3822   93.2019   15.4159 C.3     1  UNL1        0.0367
     49 C          68.8089   92.7396   15.4465 C.3     1  UNL1        0.1426
     50 C          68.9466   91.6818   13.0776 C.3     1  UNL1        0.1741
     51 O          69.5538   92.5200   14.1632 O.3     1  UNL1       -0.3511
@<TRIPOS>BOND
     1    50    51    1
     2    51    49    1
     3    49    48    1
     4    48    47    1
     5    47    34    1
     6    34    35   ar
     7    35    36   ar
     8    36    33    1
     9    33    27    1
    10    27    28   am
    11    28    29    2
    12     1    28    1
    13     1     2    1
    14     2     3    1
    15     3     4    1
    16     4     5    1
    17     5     6    1
    18     6     8    1
    19     8     9   ar
    20     9    10   ar
    21    10    11   ar
    22    11    14    1
    23    14    15    1
    24    15    16    1
    25    16    17    1
    26    17    18    1
    27    18    19   ar
    28    19    20    1
    29    19    21   ar
    30    21    22   ar
    31    22    23    1
    32    22    24   ar
    33    24    25   ar
    34    25    26    1
    35    11    12   ar
    36    12    13   ar
    37    27    30    1
    38    30    31    1
    39    31    32    1
    40    36    37   ar
    41    37    38   ar
    42    38    40    1
    43    40    41    1
    44    41    42    1
    45    42    43    1
    46    42    44    1
    47    42    45    1
    48    38    39   ar
    49    39    34   ar
    50     6     1    1
    51    13     8   ar
    52    32    30    1
    53    25    18   ar
    54     3     7    1
    55    45    46    1
@<TRIPOS>MOLECULE
*****
 51 55 0 0 0
SMALL
GASTEIGER

@<TRIPOS>ATOM
      1 C          61.1140   88.8004    9.3310 C.3     1  UNL1        0.0964
      2 C          60.3126   89.9758    8.8557 C.3     1  UNL1        0.0780
      3 N          59.3007   89.8009    7.7622 N.3     1  UNL1       -0.2970
      4 C          59.0903   88.4505    7.1441 C.3     1  UNL1        0.0689
      5 C          59.8917   87.2750    7.6194 C.3     1  UNL1        0.0220
      6 C          60.9035   87.4499    8.7129 C.3     1  UNL1        0.0337
      7 H          59.5710   90.4314    7.0073 H       1  UNL1        0.1233
      8 C          61.7049   86.2744    9.1882 C.ar    1  UNL1       -0.0217
      9 C          62.6509   85.5834    8.2513 C.ar    1  UNL1       -0.0012
     10 C          63.4523   84.4080    8.7266 C.ar    1  UNL1        0.0366
     11 C          63.3077   83.9234   10.1388 C.ar    1  UNL1        0.1387
     12 C          62.3618   84.6143   11.0757 C.ar    1  UNL1        0.0366
     13 C          61.5603   85.7898   10.6004 C.ar    1  UNL1       -0.0012
     14 O          64.1091   82.7479   10.6141 O.3     1  UNL1       -0.4714
     15 C          63.4493   81.6649   11.4153 C.3     1  UNL1        0.2525
     16 C          63.6027   81.6363   12.9071 C.3     1  UNL1        0.2525
     17 O          64.5530   82.5806   13.5816 O.3     1  UNL1       -0.4697
     18 C          64.0313   83.6214   14.5275 C.ar    1  UNL1        0.1596
     19 C          62.6544   83.4857   15.1067 C.ar    1  UNL1        0.0921
     20 CL         61.7990   82.3093   14.7400 Cl      1  UNL1       -0.0791
     21 C          62.1326   84.5265   16.0526 C.ar    1  UNL1        0.0103
     22 C          62.9880   85.7029   16.4193 C.ar    1  UNL1       -0.0200
     23 C          62.4663   86.7437   17.3651 C.3     1  UNL1        0.0311
     24 C          64.3650   85.8386   15.8400 C.ar    1  UNL1        0.0103
     25 C          64.8867   84.7978   14.8942 C.ar    1  UNL1        0.0921
     26 CL         66.2637   84.9335   14.3149 Cl      1  UNL1       -0.0791
     27 N          61.6921   89.4545   11.7780 N.am    1  UNL1       -0.2770
     28 C          62.1258   88.9753   10.4244 C.2     1  UNL1        0.2270
     29 O          63.5714   88.6709   10.1642 O.2     1  UNL1       -0.2748
     30 C          60.2466   89.7589   12.0381 C.3     1  UNL1        0.0758
     31 C          59.0589   90.6603   11.8742 C.3     1  UNL1        0.0215
     32 C          58.9304   89.3846   12.6526 C.3     1  UNL1        0.0215
     33 C          62.7040   89.6294   12.8714 C.3     1  UNL1        0.1201
     34 C          65.0157   92.5233   11.4461 C.ar    1  UNL1       -0.0194
     35 C          64.0440   91.3817   11.4989 C.ar    1  UNL1       -0.0067
     36 C          63.6756   90.7709   12.8185 C.ar    1  UNL1        0.0004
     37 C          64.2790   91.3016   14.0851 C.ar    1  UNL1        0.0343
     38 C          65.2507   92.4431   14.0322 C.ar    1  UNL1        0.1381
     39 C          65.6191   93.0539   12.7127 C.ar    1  UNL1        0.0326
     40 O          65.8540   92.9738   15.2989 O.3     1  UNL1       -0.4730
     41 C          67.1111   92.3634   15.8440 C.3     1  UNL1        0.2318
     42 C          68.4047   92.5212   15.1012 C.3     1  UNL1        0.1286
     43 C          68.0725   91.3195   14.2673 C.3     1  UNL1        0.0332
     44 C          68.7370   93.7229   15.9351 C.3     1  UNL1        0.0332
     45 O          69.6983   92.6790   14.3585 O.3     1  UNL1       -0.3831
     46 H          69.7746   91.9803   13.6899 H       1  UNL1        0.2104
     47 C          65.3841   93.1341   10.1265 C.3     1  UNL1        0.0290
     48 C          66.1359   94.4315   10.0844 C.3     1  UNL1        0.0367
     49 C          67.3414   94.5715    9.2029 C.3     1  UNL1        0.1426
     50 C          68.8763   92.4764    9.2700 C.3     1  UNL1        0.1741
     51 O          68.6355   93.9212    9.5932 O.3     1  UNL1       -0.3511
@<TRIPOS>BOND
     1    50    51    1
     2    51    49    1
     3    49    48    1
     4    48    47    1
     5    47    34    1
     6    34    35   ar
     7    35    36   ar
     8    36    33    1
     9    33    27    1
    10    27    28   am
    11    28    29    2
    12     1    28    1
    13     1     2    1
    14     2     3    1
    15     3     4    1
    16     4     5    1
    17     5     6    1
    18     6     8    1
    19     8     9   ar
    20     9    10   ar
    21    10    11   ar
    22    11    14    1
    23    14    15    1
    24    15    16    1
    25    16    17    1
    26    17    18    1
    27    18    19   ar
    28    19    20    1
    29    19    21   ar
    30    21    22   ar
    31    22    23    1
    32    22    24   ar
    33    24    25   ar
    34    25    26    1
    35    11    12   ar
    36    12    13   ar
    37    27    30    1
    38    30    31    1
    39    31    32    1
    40    36    37   ar
    41    37    38   ar
    42    38    40    1
    43    40    41    1
    44    41    42    1
    45    42    43    1
    46    42    44    1
    47    42    45    1
    48    38    39   ar
    49    39    34   ar
    50     6     1    1
    51    13     8   ar
    52    32    30    1
    53    25    18   ar
    54     3     7    1
    55    45    46    1
@<TRIPOS>MOLECULE
*****
 51 55 0 0 0
SMALL
GASTEIGER

@<TRIPOS>ATOM
      1 C          60.6394   86.9551    9.3186 C.3     1  UNL1        0.0964
      2 C          59.7770   86.1096    8.4292 C.3     1  UNL1        0.0780
      3 N          58.7873   86.7583    7.5074 N.3     1  UNL1       -0.2970
      4 C          58.6601   88.2525    7.4750 C.3     1  UNL1        0.0689
      5 C          59.5226   89.0981    8.3644 C.3     1  UNL1        0.0220
      6 C          60.5123   88.4495    9.2863 C.3     1  UNL1        0.0337
      7 H          57.8689   86.3899    7.7550 H       1  UNL1        0.1233
      8 C          61.3748   89.2950   10.1757 C.ar    1  UNL1       -0.0217
      9 C          62.6711   89.8460    9.6597 C.ar    1  UNL1       -0.0012
     10 C          63.5335   90.6916   10.5492 C.ar    1  UNL1        0.0366
     11 C          63.0998   90.9861   11.9546 C.ar    1  UNL1        0.1387
     12 C          61.8037   90.4351   12.4706 C.ar    1  UNL1        0.0366
     13 C          60.9411   89.5895   11.5811 C.ar    1  UNL1       -0.0012
     14 O          63.9623   91.8316   12.8440 O.3     1  UNL1       -0.4714
     15 C          65.3744   92.1423   12.4443 C.3     1  UNL1        0.2525
     16 C          65.9843   93.4627   12.8108 C.3     1  UNL1        0.2525
     17 O          67.1407   93.9998   12.0206 O.3     1  UNL1       -0.4697
     18 C          66.8962   94.7128   10.7237 C.ar    1  UNL1        0.1596
     19 C          66.2847   96.0825   10.7244 C.ar    1  UNL1        0.0921
     20 CL         65.9177   96.7393   12.0221 Cl      1  UNL1       -0.0791
     21 C          66.0403   96.7955    9.4275 C.ar    1  UNL1        0.0103
     22 C          66.4073   96.1387    8.1298 C.ar    1  UNL1       -0.0200
     23 C          66.1629   96.8516    6.8329 C.3     1  UNL1        0.0311
     24 C          67.0188   94.7689    8.1291 C.ar    1  UNL1        0.0103
     25 C          67.2632   94.0560    9.4260 C.ar    1  UNL1        0.0921
     26 CL         67.8747   92.6863    9.4253 Cl      1  UNL1       -0.0791
     27 N          62.6653   85.3716    9.6906 N.am    1  UNL1       -0.2770
     28 C          61.6291   86.3065   10.2405 C.2     1  UNL1        0.2270
     29 O          61.5825   86.5927   11.7122 O.2     1  UNL1       -0.2748
     30 C          62.7118   85.0855    8.2189 C.3     1  UNL1        0.0758
     31 C          62.0025   84.8225    6.9237 C.3     1  UNL1        0.0215
     32 C          63.5016   84.8529    6.9651 C.3     1  UNL1        0.0215
     33 C          63.6549   84.7229   10.6125 C.3     1  UNL1        0.1201
     34 C          62.1964   82.5071   13.5642 C.ar    1  UNL1       -0.0194
     35 C          62.6206   82.9376   12.1913 C.ar    1  UNL1       -0.0067
     36 C          63.2307   84.2924   11.9853 C.ar    1  UNL1        0.0004
     37 C          63.4167   85.2166   13.1521 C.ar    1  UNL1        0.0343
     38 C          62.9925   84.7860   14.5249 C.ar    1  UNL1        0.1381
     39 C          62.3824   83.4313   14.7310 C.ar    1  UNL1        0.0326
     40 O          63.1784   85.7102   15.6917 O.3     1  UNL1       -0.4730
     41 C          64.1235   86.8702   15.5865 C.3     1  UNL1        0.2318
     42 C          63.6184   88.2692   15.7809 C.3     1  UNL1        0.1286
     43 C          64.2887   88.6883   14.5061 C.3     1  UNL1        0.0332
     44 C          62.9481   87.8501   17.0556 C.3     1  UNL1        0.0332
     45 O          63.1133   89.6681   15.9752 O.3     1  UNL1       -0.3831
     46 H          63.4131   90.2252   15.2399 H       1  UNL1        0.2104
     47 C          61.5863   81.1524   13.7703 C.3     1  UNL1        0.0290
     48 C          62.4239   79.9193   13.6026 C.3     1  UNL1        0.0367
     49 C          62.4372   79.1946   12.2894 C.3     1  UNL1        0.1426
     50 C          62.8273   79.1994    9.7208 C.3     1  UNL1        0.1741
     51 O          62.8047   79.9264   11.0327 O.3     1  UNL1       -0.3511
@<TRIPOS>BOND
     1    50    51    1
     2    51    49    1
     3    49    48    1
     4    48    47    1
     5    47    34    1
     6    34    35   ar
     7    35    36   ar
     8    36    33    1
     9    33    27    1
    10    27    28   am
    11    28    29    2
    12     1    28    1
    13     1     2    1
    14     2     3    1
    15     3     4    1
    16     4     5    1
    17     5     6    1
    18     6     8    1
    19     8     9   ar
    20     9    10   ar
    21    10    11   ar
    22    11    14    1
    23    14    15    1
    24    15    16    1
    25    16    17    1
    26    17    18    1
    27    18    19   ar
    28    19    20    1
    29    19    21   ar
    30    21    22   ar
    31    22    23    1
    32    22    24   ar
    33    24    25   ar
    34    25    26    1
    35    11    12   ar
    36    12    13   ar
    37    27    30    1
    38    30    31    1
    39    31    32    1
    40    36    37   ar
    41    37    38   ar
    42    38    40    1
    43    40    41    1
    44    41    42    1
    45    42    43    1
    46    42    44    1
    47    42    45    1
    48    38    39   ar
    49    39    34   ar
    50     6     1    1
    51    13     8   ar
    52    32    30    1
    53    25    18   ar
    54     3     7    1
    55    45    46    1
@<TRIPOS>MOLECULE
*****
 51 55 0 0 0
SMALL
GASTEIGER

@<TRIPOS>ATOM
      1 C          60.6321   86.9891    9.2430 C.3     1  UNL1        0.0964
      2 C          59.7318   86.1237    8.4120 C.3     1  UNL1        0.0780
      3 N          58.7089   86.7517    7.5124 N.3     1  UNL1       -0.2970
      4 C          58.5863   88.2451    7.4437 C.3     1  UNL1        0.0689
      5 C          59.4867   89.1106    8.2747 C.3     1  UNL1        0.0220
      6 C          60.5096   88.4826    9.1743 C.3     1  UNL1        0.0337
      7 H          57.7997   86.3949    7.8062 H       1  UNL1        0.1233
      8 C          61.4099   89.3479   10.0053 C.ar    1  UNL1       -0.0217
      9 C          62.4272   90.2276    9.3409 C.ar    1  UNL1       -0.0012
     10 C          63.3275   91.0930   10.1718 C.ar    1  UNL1        0.0366
     11 C          63.2106   91.0787   11.6672 C.ar    1  UNL1        0.1387
     12 C          62.1933   90.1991   12.3316 C.ar    1  UNL1        0.0366
     13 C          61.2930   89.3337   11.5007 C.ar    1  UNL1       -0.0012
     14 O          64.1109   91.9441   12.4982 O.3     1  UNL1       -0.4714
     15 C          64.5620   91.4766   13.8502 C.3     1  UNL1        0.2525
     16 C          65.5873   92.2628   14.6121 C.3     1  UNL1        0.2525
     17 O          66.3640   93.3465   13.9249 O.3     1  UNL1       -0.4697
     18 C          66.9647   93.0970   12.5732 C.ar    1  UNL1        0.1596
     19 C          67.9978   92.0237   12.3982 C.ar    1  UNL1        0.0921
     20 CL         68.4303   91.1998   13.5747 Cl      1  UNL1       -0.0791
     21 C          68.5985   91.7742   11.0465 C.ar    1  UNL1        0.0103
     22 C          68.1661   92.5980    9.8699 C.ar    1  UNL1       -0.0200
     23 C          68.7667   92.3486    8.5183 C.3     1  UNL1        0.0311
     24 C          67.1329   93.6714   10.0451 C.ar    1  UNL1        0.0103
     25 C          66.5323   93.9208   11.3967 C.ar    1  UNL1        0.0921
     26 CL         65.4991   94.9942   11.5719 Cl      1  UNL1       -0.0791
     27 N          62.6581   85.3980    9.5803 N.am    1  UNL1       -0.2770
     28 C          61.6550   86.3611   10.1426 C.2     1  UNL1        0.2270
     29 O          61.6747   86.6962   11.6046 O.2     1  UNL1       -0.2748
     30 C          62.6383   85.0629    8.1184 C.3     1  UNL1        0.0758
     31 C          63.3710   84.7790    6.8407 C.3     1  UNL1        0.0215
     32 C          61.8713   84.7665    6.8639 C.3     1  UNL1        0.0215
     33 C          63.6809   84.7700   10.4800 C.3     1  UNL1        0.1201
     34 C          62.4469   82.0036   13.0440 C.ar    1  UNL1       -0.0194
     35 C          62.8751   82.6610   11.7655 C.ar    1  UNL1       -0.0067
     36 C          63.2528   84.1126   11.7584 C.ar    1  UNL1        0.0004
     37 C          63.2022   84.9069   13.0299 C.ar    1  UNL1        0.0343
     38 C          62.7741   84.2496   14.3083 C.ar    1  UNL1        0.1381
     39 C          62.3964   82.7979   14.3154 C.ar    1  UNL1        0.0326
     40 O          62.7236   85.0439   15.5798 O.3     1  UNL1       -0.4730
     41 C          63.8352   85.9932   15.9158 C.3     1  UNL1        0.2318
     42 C          63.5350   87.4415   16.1654 C.3     1  UNL1        0.1286
     43 C          62.8103   87.0739   17.4262 C.3     1  UNL1        0.0332
     44 C          64.2597   87.8090   14.9046 C.3     1  UNL1        0.0332
     45 O          63.2347   88.8898   16.4151 O.3     1  UNL1       -0.3831
     46 H          62.7282   88.9779   17.2376 H       1  UNL1        0.2104
     47 C          62.0693   80.5519   13.0511 C.3     1  UNL1        0.0290
     48 C          61.1302   80.0264   14.0960 C.3     1  UNL1        0.0367
     49 C          59.7453   80.5909   14.2120 C.3     1  UNL1        0.1426
     50 C          58.7397   78.2312   14.6249 C.3     1  UNL1        0.1741
     51 O          58.6204   79.7248   14.6960 O.3     1  UNL1       -0.3511
@<TRIPOS>BOND
     1    50    51    1
     2    51    49    1
     3    49    48    1
     4    48    47    1
     5    47    34    1
     6    34    35   ar
     7    35    36   ar
     8    36    33    1
     9    33    27    1
    10    27    28   am
    11    28    29    2
    12     1    28    1
    13     1     2    1
    14     2     3    1
    15     3     4    1
    16     4     5    1
    17     5     6    1
    18     6     8    1
    19     8     9   ar
    20     9    10   ar
    21    10    11   ar
    22    11    14    1
    23    14    15    1
    24    15    16    1
    25    16    17    1
    26    17    18    1
    27    18    19   ar
    28    19    20    1
    29    19    21   ar
    30    21    22   ar
    31    22    23    1
    32    22    24   ar
    33    24    25   ar
    34    25    26    1
    35    11    12   ar
    36    12    13   ar
    37    27    30    1
    38    30    31    1
    39    31    32    1
    40    36    37   ar
    41    37    38   ar
    42    38    40    1
    43    40    41    1
    44    41    42    1
    45    42    43    1
    46    42    44    1
    47    42    45    1
    48    38    39   ar
    49    39    34   ar
    50     6     1    1
    51    13     8   ar
    52    32    30    1
    53    25    18   ar
    54     3     7    1
    55    45    46    1
@<TRIPOS>MOLECULE
*****
 51 55 0 0 0
SMALL
GASTEIGER

@<TRIPOS>ATOM
      1 C          60.6339   90.0054   11.2274 C.3     1  UNL1        0.0964
      2 C          59.7146   91.1024   11.6762 C.3     1  UNL1        0.0780
      3 N          58.3596   90.7676   12.2256 N.3     1  UNL1       -0.2970
      4 C          57.9239   89.3358   12.3263 C.3     1  UNL1        0.0689
      5 C          58.8433   88.2387   11.8776 C.3     1  UNL1        0.0220
      6 C          60.1983   88.5735   11.3281 C.3     1  UNL1        0.0337
      7 H          57.6768   91.2422   11.6349 H       1  UNL1        0.1233
      8 C          61.1176   87.4765   10.8794 C.ar    1  UNL1       -0.0217
      9 C          61.7933   86.6023   11.8939 C.ar    1  UNL1       -0.0012
     10 C          62.7127   85.5053   11.4451 C.ar    1  UNL1        0.0366
     11 C          62.9563   85.2825    9.9819 C.ar    1  UNL1        0.1387
     12 C          62.2806   86.1567    8.9674 C.ar    1  UNL1        0.0366
     13 C          61.3612   87.2538    9.4162 C.ar    1  UNL1       -0.0012
     14 O          63.8757   84.1855    9.5331 O.3     1  UNL1       -0.4714
     15 C          64.1167   82.9995   10.4193 C.3     1  UNL1        0.2525
     16 C          64.9216   83.1532   11.6757 C.3     1  UNL1        0.2525
     17 O          64.4250   82.5617   12.9615 O.3     1  UNL1       -0.4697
     18 C          63.9159   83.4574   14.0519 C.ar    1  UNL1        0.1596
     19 C          64.7731   84.5763   14.5648 C.ar    1  UNL1        0.0921
     20 CL         66.1394   84.7997   13.9874 Cl      1  UNL1       -0.0791
     21 C          64.2640   85.4720   15.6551 C.ar    1  UNL1        0.0103
     22 C          62.8977   85.2486   16.2324 C.ar    1  UNL1       -0.0200
     23 C          62.3886   86.1442   17.3227 C.3     1  UNL1        0.0311
     24 C          62.0405   84.1296   15.7195 C.ar    1  UNL1        0.0103
     25 C          62.5496   83.2340   14.6292 C.ar    1  UNL1        0.0921
     26 CL         61.6924   82.1150   14.1162 Cl      1  UNL1       -0.0791
     27 N          63.1626   90.4684   11.6031 N.am    1  UNL1       -0.2770
     28 C          61.9889   90.3402   10.6780 C.2     1  UNL1        0.2270
     29 O          62.1701   90.5467    9.2033 O.2     1  UNL1       -0.2748
     30 C          62.9813   90.2619   13.0776 C.3     1  UNL1        0.0758
     31 C          62.1950   89.6968   14.2232 C.3     1  UNL1        0.0215
     32 C          63.4537   90.4692   14.4861 C.3     1  UNL1        0.0215
     33 C          64.5176   90.8032   11.0536 C.3     1  UNL1        0.1201
     34 C          65.8218   94.4978   10.4219 C.ar    1  UNL1       -0.0194
     35 C          65.2261   93.1434   10.1753 C.ar    1  UNL1       -0.0067
     36 C          65.1132   92.1576   11.3002 C.ar    1  UNL1        0.0004
     37 C          65.5959   92.5263   12.6718 C.ar    1  UNL1        0.0343
     38 C          66.1916   93.8806   12.9183 C.ar    1  UNL1        0.1381
     39 C          66.3045   94.8664   11.7934 C.ar    1  UNL1        0.0326
     40 O          66.6743   94.2493   14.2899 O.3     1  UNL1       -0.4730
     41 C          66.8147   93.1923   15.3449 C.3     1  UNL1        0.2318
     42 C          68.1485   92.5522   15.5925 C.3     1  UNL1        0.1286
     43 C          68.7246   93.8906   15.9487 C.3     1  UNL1        0.0332
     44 C          67.5723   91.2139   15.2362 C.3     1  UNL1        0.0332
     45 O          69.4822   91.9122   15.8401 O.3     1  UNL1       -0.3831
     46 H          70.1210   92.5902   16.1107 H       1  UNL1        0.2104
     47 C          65.9347   95.4836    9.2970 C.3     1  UNL1        0.0290
     48 C          67.2194   95.6049    8.5321 C.3     1  UNL1        0.0367
     49 C          68.0829   94.3968    8.3201 C.3     1  UNL1        0.1426
     50 C          68.7543   92.3007    9.7004 C.3     1  UNL1        0.1741
     51 O          68.8117   93.7831    9.4785 O.3     1  UNL1       -0.3511
@<TRIPOS>BOND
     1    50    51    1
     2    51    49    1
     3    49    48    1
     4    48    47    1
     5    47    34    1
     6    34    35   ar
     7    35    36   ar
     8    36    33    1
     9    33    27    1
    10    27    28   am
    11    28    29    2
    12     1    28    1
    13     1     2    1
    14     2     3    1
    15     3     4    1
    16     4     5    1
    17     5     6    1
    18     6     8    1
    19     8     9   ar
    20     9    10   ar
    21    10    11   ar
    22    11    14    1
    23    14    15    1
    24    15    16    1
    25    16    17    1
    26    17    18    1
    27    18    19   ar
    28    19    20    1
    29    19    21   ar
    30    21    22   ar
    31    22    23    1
    32    22    24   ar
    33    24    25   ar
    34    25    26    1
    35    11    12   ar
    36    12    13   ar
    37    27    30    1
    38    30    31    1
    39    31    32    1
    40    36    37   ar
    41    37    38   ar
    42    38    40    1
    43    40    41    1
    44    41    42    1
    45    42    43    1
    46    42    44    1
    47    42    45    1
    48    38    39   ar
    49    39    34   ar
    50     6     1    1
    51    13     8   ar
    52    32    30    1
    53    25    18   ar
    54     3     7    1
    55    45    46    1
@<TRIPOS>MOLECULE
*****
 51 55 0 0 0
SMALL
GASTEIGER

@<TRIPOS>ATOM
      1 C          63.3926   86.9692   12.9598 C.3     1  UNL1        0.0964
      2 C          64.1935   86.4657   14.1238 C.3     1  UNL1        0.0780
      3 N          64.1958   85.0030   14.4560 N.3     1  UNL1       -0.2970
      4 C          63.3973   84.0437   13.6242 C.3     1  UNL1        0.0689
      5 C          62.5963   84.5471   12.4601 C.3     1  UNL1        0.0220
      6 C          62.5939   86.0099   12.1279 C.3     1  UNL1        0.0337
      7 H          63.8540   84.9179   15.4133 H       1  UNL1        0.1233
      8 C          61.7930   86.5133   10.9638 C.ar    1  UNL1       -0.0217
      9 C          60.6797   87.4935   11.1873 C.ar    1  UNL1       -0.0012
     10 C          59.8788   87.9970   10.0233 C.ar    1  UNL1        0.0366
     11 C          60.1911   87.5203    8.6357 C.ar    1  UNL1        0.1387
     12 C          61.3044   86.5402    8.4122 C.ar    1  UNL1        0.0366
     13 C          62.1053   86.0366    9.5763 C.ar    1  UNL1       -0.0012
     14 O          59.3902   88.0238    7.4717 O.3     1  UNL1       -0.4714
     15 C          59.4846   89.4640    7.0632 C.3     1  UNL1        0.2525
     16 C          59.8749   89.8215    5.6597 C.3     1  UNL1        0.2525
     17 O          60.9108   90.8785    5.4155 O.3     1  UNL1       -0.4697
     18 C          60.9335   91.6192    4.1112 C.ar    1  UNL1        0.1596
     19 C          59.7370   92.4137    3.6790 C.ar    1  UNL1        0.0921
     20 CL         58.5176   92.4676    4.5509 Cl      1  UNL1       -0.0791
     21 C          59.7597   93.1545    2.3748 C.ar    1  UNL1        0.0103
     22 C          60.9791   93.1006    1.5029 C.ar    1  UNL1       -0.0200
     23 C          61.0019   93.8413    0.1988 C.3     1  UNL1        0.0311
     24 C          62.1757   92.3061    1.9352 C.ar    1  UNL1        0.0103
     25 C          62.1529   91.5654    3.2393 C.ar    1  UNL1        0.0921
     26 CL         63.3495   90.7708    3.6716 Cl      1  UNL1       -0.0791
     27 N          63.3723   89.4509   13.7282 N.am    1  UNL1       -0.2770
     28 C          63.3902   88.4319   12.6276 C.2     1  UNL1        0.2270
     29 O          63.4058   88.8757   11.1948 O.2     1  UNL1       -0.2748
     30 C          63.3567   89.0072   15.1609 C.3     1  UNL1        0.0758
     31 C          63.5470   87.9328   16.1902 C.3     1  UNL1        0.0215
     32 C          63.1393   89.3129   16.6132 C.3     1  UNL1        0.0215
     33 C          63.3699   90.9137   13.3960 C.3     1  UNL1        0.1201
     34 C          67.1578   92.0205   12.9751 C.ar    1  UNL1       -0.0194
     35 C          65.9229   91.3758   13.5316 C.ar    1  UNL1       -0.0067
     36 C          64.6047   91.5584   12.8396 C.ar    1  UNL1        0.0004
     37 C          64.5212   92.3858   11.5912 C.ar    1  UNL1        0.0343
     38 C          65.7560   93.0306   11.0348 C.ar    1  UNL1        0.1381
     39 C          67.0743   92.8479   11.7268 C.ar    1  UNL1        0.0326
     40 O          65.6726   93.8580    9.7864 O.3     1  UNL1       -0.4730
     41 C          65.9717   95.3269    9.8388 C.3     1  UNL1        0.2318
     42 C          66.8559   95.9498    8.7995 C.3     1  UNL1        0.1286
     43 C          65.7332   96.8550    8.3869 C.3     1  UNL1        0.0332
     44 C          67.9785   95.0446    9.2121 C.3     1  UNL1        0.0332
     45 O          67.7401   96.5727    7.7602 O.3     1  UNL1       -0.3831
     46 H          67.2462   97.2589    7.2846 H       1  UNL1        0.2104
     47 C          68.4760   91.8379   13.6671 C.3     1  UNL1        0.0290
     48 C          68.5719   92.0062   15.1546 C.3     1  UNL1        0.0367
     49 C          68.2579   93.3324   15.7811 C.3     1  UNL1        0.1426
     50 C          65.9043   92.4719   16.4663 C.3     1  UNL1        0.1741
     51 O          66.9737   93.5216   16.5327 O.3     1  UNL1       -0.3511
@<TRIPOS>BOND
     1    50    51    1
     2    51    49    1
     3    49    48    1
     4    48    47    1
     5    47    34    1
     6    34    35   ar
     7    35    36   ar
     8    36    33    1
     9    33    27    1
    10    27    28   am
    11    28    29    2
    12     1    28    1
    13     1     2    1
    14     2     3    1
    15     3     4    1
    16     4     5    1
    17     5     6    1
    18     6     8    1
    19     8     9   ar
    20     9    10   ar
    21    10    11   ar
    22    11    14    1
    23    14    15    1
    24    15    16    1
    25    16    17    1
    26    17    18    1
    27    18    19   ar
    28    19    20    1
    29    19    21   ar
    30    21    22   ar
    31    22    23    1
    32    22    24   ar
    33    24    25   ar
    34    25    26    1
    35    11    12   ar
    36    12    13   ar
    37    27    30    1
    38    30    31    1
    39    31    32    1
    40    36    37   ar
    41    37    38   ar
    42    38    40    1
    43    40    41    1
    44    41    42    1
    45    42    43    1
    46    42    44    1
    47    42    45    1
    48    38    39   ar
    49    39    34   ar
    50     6     1    1
    51    13     8   ar
    52    32    30    1
    53    25    18   ar
    54     3     7    1
    55    45    46    1
@<TRIPOS>MOLECULE
*****
 51 55 0 0 0
SMALL
GASTEIGER

@<TRIPOS>ATOM
      1 C          63.4491   86.8673   13.0230 C.3     1  UNL1        0.0964
      2 C          64.2511   86.3648   14.1866 C.3     1  UNL1        0.0780
      3 N          64.2904   84.8968   14.4924 N.3     1  UNL1       -0.2970
      4 C          63.5276   83.9314   13.6346 C.3     1  UNL1        0.0689
      5 C          62.7255   84.4338   12.4708 C.3     1  UNL1        0.0220
      6 C          62.6862   85.9018   12.1650 C.3     1  UNL1        0.0337
      7 H          63.9408   84.7849   15.4441 H       1  UNL1        0.1233
      8 C          61.8842   86.4043   11.0014 C.ar    1  UNL1       -0.0217
      9 C          60.7286   87.3325   11.2319 C.ar    1  UNL1       -0.0012
     10 C          59.9265   87.8350   10.0682 C.ar    1  UNL1        0.0366
     11 C          60.2800   87.4093    8.6740 C.ar    1  UNL1        0.1387
     12 C          61.4355   86.4811    8.4434 C.ar    1  UNL1        0.0366
     13 C          62.2376   85.9786    9.6071 C.ar    1  UNL1       -0.0012
     14 O          59.4779   87.9118    7.5103 O.3     1  UNL1       -0.4714
     15 C          59.5570   89.3560    7.1127 C.3     1  UNL1        0.2525
     16 C          59.9482   89.7283    5.7133 C.3     1  UNL1        0.2525
     17 O          60.8631   90.8928    5.4750 O.3     1  UNL1       -0.4697
     18 C          60.8481   91.5999    4.1521 C.ar    1  UNL1        0.1596
     19 C          62.0772   91.6088    3.2924 C.ar    1  UNL1        0.0921
     20 CL         63.3214   90.9105    3.7555 Cl      1  UNL1       -0.0791
     21 C          62.0622   92.3159    1.9696 C.ar    1  UNL1        0.0103
     22 C          60.8180   93.0142    1.5066 C.ar    1  UNL1       -0.0200
     23 C          60.8030   93.7214    0.1838 C.3     1  UNL1        0.0311
     24 C          59.5888   93.0054    2.3663 C.ar    1  UNL1        0.0103
     25 C          59.6039   92.2982    3.6891 C.ar    1  UNL1        0.0921
     26 CL         58.3747   92.2893    4.5489 Cl      1  UNL1       -0.0791
     27 N          63.3355   89.3325   13.8351 N.am    1  UNL1       -0.2770
     28 C          63.4098   88.3353   12.7171 C.2     1  UNL1        0.2270
     29 O          63.4448   88.8059   11.2933 O.2     1  UNL1       -0.2748
     30 C          63.3005   88.8618   15.2589 C.3     1  UNL1        0.0758
     31 C          63.2596   89.1663   16.7271 C.3     1  UNL1        0.0215
     32 C          63.2807   87.7421   16.2568 C.3     1  UNL1        0.0215
     33 C          63.2962   90.8005   13.5293 C.3     1  UNL1        0.1201
     34 C          65.6190   93.0619   11.2400 C.ar    1  UNL1       -0.0194
     35 C          64.4007   92.3762   11.7836 C.ar    1  UNL1       -0.0067
     36 C          64.5145   91.4862   12.9857 C.ar    1  UNL1        0.0004
     37 C          65.8467   91.2820   13.6442 C.ar    1  UNL1        0.0343
     38 C          67.0650   91.9677   13.1006 C.ar    1  UNL1        0.1381
     39 C          66.9512   92.8577   11.8985 C.ar    1  UNL1        0.0326
     40 O          68.3972   91.7635   13.7591 O.3     1  UNL1       -0.4730
     41 C          68.5236   91.8826   15.2489 C.3     1  UNL1        0.2318
     42 C          68.5233   93.2360   15.8958 C.3     1  UNL1        0.1286
     43 C          67.1308   92.9952   16.3988 C.3     1  UNL1        0.0332
     44 C          69.9158   93.4767   15.3928 C.3     1  UNL1        0.0332
     45 O          68.5230   94.5893   16.5427 O.3     1  UNL1       -0.3831
     46 H          67.6740   94.7342   16.9889 H       1  UNL1        0.2104
     47 C          65.5052   93.9519   10.0379 C.3     1  UNL1        0.0290
     48 C          66.5077   95.0456    9.8168 C.3     1  UNL1        0.0367
     49 C          67.6754   94.8191    8.9029 C.3     1  UNL1        0.1426
     50 C          68.8233   92.4944    9.0703 C.3     1  UNL1        0.1741
     51 O          68.8255   93.9676    9.3524 O.3     1  UNL1       -0.3511
@<TRIPOS>BOND
     1    50    51    1
     2    51    49    1
     3    49    48    1
     4    48    47    1
     5    47    34    1
     6    34    35   ar
     7    35    36   ar
     8    36    33    1
     9    33    27    1
    10    27    28   am
    11    28    29    2
    12     1    28    1
    13     1     2    1
    14     2     3    1
    15     3     4    1
    16     4     5    1
    17     5     6    1
    18     6     8    1
    19     8     9   ar
    20     9    10   ar
    21    10    11   ar
    22    11    14    1
    23    14    15    1
    24    15    16    1
    25    16    17    1
    26    17    18    1
    27    18    19   ar
    28    19    20    1
    29    19    21   ar
    30    21    22   ar
    31    22    23    1
    32    22    24   ar
    33    24    25   ar
    34    25    26    1
    35    11    12   ar
    36    12    13   ar
    37    27    30    1
    38    30    31    1
    39    31    32    1
    40    36    37   ar
    41    37    38   ar
    42    38    40    1
    43    40    41    1
    44    41    42    1
    45    42    43    1
    46    42    44    1
    47    42    45    1
    48    38    39   ar
    49    39    34   ar
    50     6     1    1
    51    13     8   ar
    52    32    30    1
    53    25    18   ar
    54     3     7    1
    55    45    46    1
@<TRIPOS>MOLECULE
*****
 51 55 0 0 0
SMALL
GASTEIGER

@<TRIPOS>ATOM
      1 C          59.9193   88.3790    9.0107 C.3     1  UNL1        0.0964
      2 C          58.9783   87.9250    7.9344 C.3     1  UNL1        0.0780
      3 N          58.9048   88.6745    6.6372 N.3     1  UNL1       -0.2970
      4 C          59.7723   89.8780    6.4162 C.3     1  UNL1        0.0689
      5 C          60.7134   90.3321    7.4925 C.3     1  UNL1        0.0220
      6 C          60.7869   89.5825    8.7897 C.3     1  UNL1        0.0337
      7 H          57.9388   88.9842    6.5304 H       1  UNL1        0.1233
      8 C          61.7279   90.0365    9.8660 C.ar    1  UNL1       -0.0217
      9 C          61.6276   89.4541   11.2447 C.ar    1  UNL1       -0.0012
     10 C          62.5686   89.9081   12.3209 C.ar    1  UNL1        0.0366
     11 C          63.6099   90.9445   12.0185 C.ar    1  UNL1        0.1387
     12 C          63.7103   91.5269   10.6399 C.ar    1  UNL1        0.0366
     13 C          62.7692   91.0730    9.5636 C.ar    1  UNL1       -0.0012
     14 O          64.5509   91.3985   13.0948 O.3     1  UNL1       -0.4714
     15 C          65.4925   92.5373   12.8365 C.3     1  UNL1        0.2525
     16 C          66.8049   92.2856   12.1552 C.3     1  UNL1        0.2525
     17 O          67.6597   93.4402   11.7239 O.3     1  UNL1       -0.4697
     18 C          67.2381   94.2936   10.5645 C.ar    1  UNL1        0.1596
     19 C          67.5750   93.8755    9.1639 C.ar    1  UNL1        0.0921
     20 CL         68.3336   92.6041    8.9227 Cl      1  UNL1       -0.0791
     21 C          67.1535   94.7289    8.0045 C.ar    1  UNL1        0.0103
     22 C          66.3950   96.0002    8.2457 C.ar    1  UNL1       -0.0200
     23 C          65.9734   96.8536    7.0864 C.3     1  UNL1        0.0311
     24 C          66.0580   96.4183    9.6464 C.ar    1  UNL1        0.0103
     25 C          66.4796   95.5650   10.8057 C.ar    1  UNL1        0.0921
     26 CL         66.1426   95.9830   12.2064 Cl      1  UNL1       -0.0791
     27 N          60.8848   86.4299   10.4315 N.am    1  UNL1       -0.2770
     28 C          59.9927   87.6294   10.3079 C.2     1  UNL1        0.2270
     29 O          59.1741   88.0795   11.4816 O.2     1  UNL1       -0.2748
     30 C          61.7033   85.9799    9.2579 C.3     1  UNL1        0.0758
     31 C          63.0345   85.8328    8.5825 C.3     1  UNL1        0.0215
     32 C          61.7899   85.3474    7.9005 C.3     1  UNL1        0.0215
     33 C          60.9582   85.6804   11.7288 C.3     1  UNL1        0.1201
     34 C          64.3038   85.8375   13.8577 C.ar    1  UNL1       -0.0194
     35 C          62.9701   86.2140   13.2835 C.ar    1  UNL1       -0.0067
     36 C          62.2918   85.3039   12.3029 C.ar    1  UNL1        0.0004
     37 C          62.9472   84.0173   11.8965 C.ar    1  UNL1        0.0343
     38 C          64.2808   83.6408   12.4707 C.ar    1  UNL1        0.1381
     39 C          64.9591   84.5509   13.4513 C.ar    1  UNL1        0.0326
     40 O          64.9362   82.3542   12.0642 O.3     1  UNL1       -0.4730
     41 C          64.4991   81.0608   12.6856 C.3     1  UNL1        0.2318
     42 C          63.0554   80.8446   13.0306 C.3     1  UNL1        0.1286
     43 C          63.3061   81.3738   14.4116 C.3     1  UNL1        0.0332
     44 C          62.8047   80.3155   11.6496 C.3     1  UNL1        0.0332
     45 O          61.6117   80.6285   13.3756 O.3     1  UNL1       -0.3831
     46 H          61.4534   80.9045   14.2919 H       1  UNL1        0.2104
     47 C          64.9821   86.7476   14.8383 C.3     1  UNL1        0.0290
     48 C          64.4717   88.1432   15.0434 C.3     1  UNL1        0.0367
     49 C          63.4695   88.4240   16.1236 C.3     1  UNL1        0.1426
     50 C          63.5186   91.0130   16.3351 C.3     1  UNL1        0.1741
     51 O          62.7481   89.7388   16.1539 O.3     1  UNL1       -0.3511
@<TRIPOS>BOND
     1    50    51    1
     2    51    49    1
     3    49    48    1
     4    48    47    1
     5    47    34    1
     6    34    35   ar
     7    35    36   ar
     8    36    33    1
     9    33    27    1
    10    27    28   am
    11    28    29    2
    12     1    28    1
    13     1     2    1
    14     2     3    1
    15     3     4    1
    16     4     5    1
    17     5     6    1
    18     6     8    1
    19     8     9   ar
    20     9    10   ar
    21    10    11   ar
    22    11    14    1
    23    14    15    1
    24    15    16    1
    25    16    17    1
    26    17    18    1
    27    18    19   ar
    28    19    20    1
    29    19    21   ar
    30    21    22   ar
    31    22    23    1
    32    22    24   ar
    33    24    25   ar
    34    25    26    1
    35    11    12   ar
    36    12    13   ar
    37    27    30    1
    38    30    31    1
    39    31    32    1
    40    36    37   ar
    41    37    38   ar
    42    38    40    1
    43    40    41    1
    44    41    42    1
    45    42    43    1
    46    42    44    1
    47    42    45    1
    48    38    39   ar
    49    39    34   ar
    50     6     1    1
    51    13     8   ar
    52    32    30    1
    53    25    18   ar
    54     3     7    1
    55    45    46    1
