@<TRIPOS>MOLECULE
*****
 48 52 0 0 0
SMALL
GASTEIGER

@<TRIPOS>ATOM
      1 N          61.8650   87.4106   11.7406 N.am    1  UNL1       -0.2724
      2 C          62.2727   88.5929   12.5688 C.2     1  UNL1        0.2491
      3 O          61.3693   89.7862   12.6684 O.2     1  UNL1       -0.2727
      4 C          62.7684   86.2173   11.6409 C.3     1  UNL1        0.1111
      5 C          62.3482   85.0237   10.8356 C.3     1  UNL1        0.0939
      6 N          63.1559   84.6005    9.6444 N.3     1  UNL1       -0.2712
      7 C          61.8889   85.2465    7.4702 C.3     1  UNL1        0.0188
      8 C          63.0810   85.3874    8.3696 C.3     1  UNL1        0.0722
      9 C          64.0383   83.3905    9.7281 C.3     1  UNL1        0.0722
     10 C          63.7062   82.2849   10.6859 C.3     1  UNL1        0.0188
     11 C          60.5538   87.4216   11.0120 C.3     1  UNL1        0.1202
     12 C          60.4026   88.2214    9.7521 C.ar    1  UNL1       -0.0023
     13 C          61.1060   89.5387    9.6110 C.ar    1  UNL1       -0.0026
     14 C          60.9548   90.3385    8.3511 C.ar    1  UNL1       -0.0003
     15 C          60.1001   89.8211    7.2323 C.ar    1  UNL1       -0.0000
     16 C          59.3966   88.5038    7.3733 C.ar    1  UNL1       -0.0003
     17 C          59.5479   87.7039    8.6332 C.ar    1  UNL1       -0.0026
     18 C          59.9489   90.6210    5.9724 C.ar    1  UNL1       -0.0000
     19 C          61.1552   90.9510    5.1442 C.ar    1  UNL1       -0.0001
     20 C          61.0039   91.7509    3.8843 C.ar    1  UNL1        0.0039
     21 C          59.6464   92.2207    3.4526 C.ar    1  UNL1        0.0714
     22 C          58.4401   91.8906    4.2808 C.ar    1  UNL1        0.0039
     23 C          58.5913   91.0908    5.5407 C.ar    1  UNL1       -0.0001
     24 C          59.4952   93.0205    2.1927 C.3     1  UNL1        0.4186
     25 F          59.3439   93.8204    0.9327 F       1  UNL1       -0.1659
     26 F          60.7333   93.7948    2.5356 F       1  UNL1       -0.1659
     27 F          58.2571   92.2462    1.8497 F       1  UNL1       -0.1659
     28 C          63.5839   88.5819   13.2973 C.3     1  UNL1        0.1931
     29 N          63.8779   89.6312   14.3282 N.ar    1  UNL1       -0.3030
     30 C          63.3714   89.4675   15.7305 C.ar    1  UNL1        0.1747
     31 N          63.6654   90.5167   16.7614 N.ar    1  UNL1       -0.1847
     32 C          64.4658   91.7297   16.3899 C.ar    1  UNL1        0.2779
     33 O          64.7598   92.7789   17.4207 O.2     1  UNL1       -0.2654
     34 C          64.9723   91.8934   14.9874 C.ar    1  UNL1        0.0474
     35 C          64.6783   90.8442   13.9566 C.ar    1  UNL1        0.0399
     36 C          65.1847   91.0079   12.5542 C.3     1  UNL1        0.0437
     37 C          65.9852   92.2208   12.1827 C.3     1  UNL1        0.0066
     38 C          66.2792   93.2700   13.2136 C.3     1  UNL1        0.0053
     39 C          65.7727   93.1063   14.6159 C.3     1  UNL1        0.0324
     40 S          62.5710   88.2545   16.1021 S.3     1  UNL1       -0.0724
     41 C          63.2421   87.0858   16.7606 C.3     1  UNL1        0.0913
     42 C          63.4824   85.8244   15.9853 C.ar    1  UNL1       -0.0108
     43 C          64.6934   85.7021   15.1084 C.ar    1  UNL1       -0.0011
     44 C          64.9336   84.4408   14.3331 C.ar    1  UNL1        0.0293
     45 C          63.9630   83.3016   14.4346 C.ar    1  UNL1        0.1401
     46 F          64.2033   82.0403   13.6593 F       1  UNL1       -0.2042
     47 C          62.7521   83.4239   15.3113 C.ar    1  UNL1        0.0293
     48 C          62.5118   84.6853   16.0867 C.ar    1  UNL1       -0.0011
@<TRIPOS>BOND
     1     7     8    1
     2     8     6    1
     3     6     9    1
     4     9    10    1
     5     6     5    1
     6     5     4    1
     7     4     1    1
     8     1    11    1
     9    11    12    1
    10    12    13   ar
    11    13    14   ar
    12    14    15   ar
    13    15    18    1
    14    18    19   ar
    15    19    20   ar
    16    20    21   ar
    17    21    24    1
    18    24    25    1
    19    24    26    1
    20    24    27    1
    21    21    22   ar
    22    22    23   ar
    23    15    16   ar
    24    16    17   ar
    25     1     2   am
    26     2     3    2
    27     2    28    1
    28    28    29    1
    29    29    30   ar
    30    30    40    1
    31    40    41    1
    32    41    42    1
    33    42    43   ar
    34    43    44   ar
    35    44    45   ar
    36    45    46    1
    37    45    47   ar
    38    47    48   ar
    39    30    31   ar
    40    31    32   ar
    41    32    33    2
    42    32    34   ar
    43    34    35   ar
    44    35    36    1
    45    36    37    1
    46    37    38    1
    47    38    39    1
    48    17    12   ar
    49    35    29   ar
    50    23    18   ar
    51    48    42   ar
    52    39    34    1
@<TRIPOS>MOLECULE
*****
 48 52 0 0 0
SMALL
GASTEIGER

@<TRIPOS>ATOM
      1 N          61.0254   87.1500   10.8141 N.am    1  UNL1       -0.2724
      2 C          61.4908   88.0620   11.9102 C.2     1  UNL1        0.2491
      3 O          60.6760   89.2657   12.2810 O.2     1  UNL1       -0.2727
      4 C          61.8401   85.9464   10.4433 C.3     1  UNL1        0.1111
      5 C          62.7380   85.9894    9.2425 C.3     1  UNL1        0.0939
      6 N          63.2013   84.7124    8.6063 N.3     1  UNL1       -0.2712
      7 C          61.4833   84.8446    6.6618 C.3     1  UNL1        0.0188
      8 C          62.8117   84.3941    7.1932 C.3     1  UNL1        0.0722
      9 C          64.0542   83.7538    9.3832 C.3     1  UNL1        0.0722
     10 C          63.4129   82.6674   10.1946 C.3     1  UNL1        0.0188
     11 C          59.7451   87.4415   10.0887 C.3     1  UNL1        0.1202
     12 C          59.7553   88.3197    8.8727 C.ar    1  UNL1       -0.0023
     13 C          59.0575   87.8760    7.6213 C.ar    1  UNL1       -0.0026
     14 C          59.0677   88.7542    6.4053 C.ar    1  UNL1       -0.0003
     15 C          59.7757   90.0761    6.4407 C.ar    1  UNL1       -0.0000
     16 C          60.4736   90.5199    7.6922 C.ar    1  UNL1       -0.0003
     17 C          60.4634   89.6417    8.9082 C.ar    1  UNL1       -0.0026
     18 C          59.7859   90.9543    5.2247 C.ar    1  UNL1       -0.0000
     19 C          58.4992   91.5091    4.6894 C.ar    1  UNL1       -0.0001
     20 C          58.5094   92.3873    3.4734 C.ar    1  UNL1        0.0039
     21 C          59.8063   92.7107    2.7927 C.ar    1  UNL1        0.0714
     22 C          61.0931   92.1560    3.3280 C.ar    1  UNL1        0.0039
     23 C          61.0829   91.2778    4.5440 C.ar    1  UNL1       -0.0001
     24 C          59.8165   93.5889    1.5767 C.3     1  UNL1        0.4186
     25 F          59.8267   94.4671    0.3607 F       1  UNL1       -0.1659
     26 F          59.5804   92.3890    0.7082 F       1  UNL1       -0.1659
     27 F          60.0526   94.7888    2.4453 F       1  UNL1       -0.1659
     28 C          62.7710   87.7705   12.6355 C.3     1  UNL1        0.1931
     29 N          63.6089   88.8983   13.1610 N.ar    1  UNL1       -0.3030
     30 C          64.1856   88.8231   14.5436 C.ar    1  UNL1        0.1747
     31 N          65.0235   89.9509   15.0690 N.ar    1  UNL1       -0.1847
     32 C          65.2846   91.1538   14.2119 C.ar    1  UNL1        0.2779
     33 O          66.1225   92.2816   14.7373 O.2     1  UNL1       -0.2654
     34 C          64.7079   91.2290   12.8292 C.ar    1  UNL1        0.0474
     35 C          63.8700   90.1012   12.3037 C.ar    1  UNL1        0.0399
     36 C          63.2933   90.1764   10.9211 C.3     1  UNL1        0.0437
     37 C          63.5544   91.3793   10.0640 C.3     1  UNL1        0.0066
     38 C          64.3923   92.5071   10.5894 C.3     1  UNL1        0.0053
     39 C          64.9690   92.4319   11.9720 C.3     1  UNL1        0.0324
     40 S          63.9245   87.6202   15.4008 S.3     1  UNL1       -0.0724
     41 C          64.7852   86.3995   15.2624 C.3     1  UNL1        0.0913
     42 C          64.1690   85.0871   14.8780 C.ar    1  UNL1       -0.0108
     43 C          62.8597   84.6686   15.4787 C.ar    1  UNL1       -0.0011
     44 C          62.2436   83.3562   15.0943 C.ar    1  UNL1        0.0293
     45 C          62.9366   82.4622   14.1092 C.ar    1  UNL1        0.1401
     46 F          62.3205   81.1497   13.7248 F       1  UNL1       -0.2042
     47 C          64.2458   82.8806   13.5085 C.ar    1  UNL1        0.0293
     48 C          64.8621   84.1931   13.8929 C.ar    1  UNL1       -0.0011
@<TRIPOS>BOND
     1     7     8    1
     2     8     6    1
     3     6     9    1
     4     9    10    1
     5     6     5    1
     6     5     4    1
     7     4     1    1
     8     1    11    1
     9    11    12    1
    10    12    13   ar
    11    13    14   ar
    12    14    15   ar
    13    15    18    1
    14    18    19   ar
    15    19    20   ar
    16    20    21   ar
    17    21    24    1
    18    24    25    1
    19    24    26    1
    20    24    27    1
    21    21    22   ar
    22    22    23   ar
    23    15    16   ar
    24    16    17   ar
    25     1     2   am
    26     2     3    2
    27     2    28    1
    28    28    29    1
    29    29    30   ar
    30    30    40    1
    31    40    41    1
    32    41    42    1
    33    42    43   ar
    34    43    44   ar
    35    44    45   ar
    36    45    46    1
    37    45    47   ar
    38    47    48   ar
    39    30    31   ar
    40    31    32   ar
    41    32    33    2
    42    32    34   ar
    43    34    35   ar
    44    35    36    1
    45    36    37    1
    46    37    38    1
    47    38    39    1
    48    17    12   ar
    49    35    29   ar
    50    23    18   ar
    51    48    42   ar
    52    39    34    1
@<TRIPOS>MOLECULE
*****
 48 52 0 0 0
SMALL
GASTEIGER

@<TRIPOS>ATOM
      1 N          59.9192   88.4838    7.8431 N.am    1  UNL1       -0.2724
      2 C          60.5866   88.7517    9.1594 C.2     1  UNL1        0.2491
      3 O          60.1445   89.9112   10.0022 O.2     1  UNL1       -0.2727
      4 C          60.3613   87.3244    7.0003 C.3     1  UNL1        0.1111
      5 C          60.2598   85.9266    7.5351 C.3     1  UNL1        0.0939
      6 N          61.2804   84.8986    7.1456 N.3     1  UNL1       -0.2712
      7 C          62.1763   84.2440    4.7964 C.3     1  UNL1        0.0188
      8 C          61.1262   84.1376    5.8622 C.3     1  UNL1        0.0722
      9 C          62.4550   84.6316    8.0394 C.3     1  UNL1        0.0722
     10 C          63.5459   85.6529    8.1694 C.3     1  UNL1        0.0188
     11 C          58.8098   89.3754    7.3694 C.3     1  UNL1        0.1202
     12 C          59.0245   90.2785    6.1912 C.ar    1  UNL1       -0.0023
     13 C          60.4137   90.5383    5.6887 C.ar    1  UNL1       -0.0026
     14 C          60.6285   91.4414    4.5105 C.ar    1  UNL1       -0.0003
     15 C          59.4540   92.0848    3.8347 C.ar    1  UNL1       -0.0000
     16 C          58.0647   91.8250    4.3372 C.ar    1  UNL1       -0.0003
     17 C          57.8499   90.9219    5.5155 C.ar    1  UNL1       -0.0026
     18 C          59.6688   92.9879    2.6565 C.ar    1  UNL1       -0.0000
     19 C          59.0256   92.6685    1.3396 C.ar    1  UNL1       -0.0001
     20 C          59.2403   93.5717    0.1614 C.ar    1  UNL1        0.0039
     21 C          60.0983   94.7942    0.3001 C.ar    1  UNL1        0.0714
     22 C          60.7415   95.1137    1.6170 C.ar    1  UNL1        0.0039
     23 C          60.5268   94.2105    2.7952 C.ar    1  UNL1       -0.0001
     24 C          60.3130   95.6973   -0.8782 C.3     1  UNL1        0.4186
     25 F          60.5278   96.6005   -2.0564 F       1  UNL1       -0.1659
     26 F          59.2642   94.9471   -1.6444 F       1  UNL1       -0.1659
     27 F          61.3618   96.4476   -0.1119 F       1  UNL1       -0.1659
     28 C          61.6960   87.8602    9.6331 C.3     1  UNL1        0.1931
     29 N          62.4271   88.1825   10.9026 N.ar    1  UNL1       -0.3030
     30 C          62.5554   87.1450   11.9782 C.ar    1  UNL1        0.1747
     31 N          63.2865   87.4674   13.2477 N.ar    1  UNL1       -0.1847
     32 C          63.8892   88.8272   13.4416 C.ar    1  UNL1        0.2779
     33 O          64.6203   89.1495   14.7111 O.2     1  UNL1       -0.2654
     34 C          63.7609   89.8647   12.3659 C.ar    1  UNL1        0.0474
     35 C          63.0298   89.5424   11.0964 C.ar    1  UNL1        0.0399
     36 C          62.9015   90.5799   10.0207 C.3     1  UNL1        0.0437
     37 C          63.5042   91.9397   10.2146 C.3     1  UNL1        0.0066
     38 C          64.2353   92.2620   11.4841 C.3     1  UNL1        0.0053
     39 C          64.3636   91.2245   12.5597 C.3     1  UNL1        0.0324
     40 S          61.9527   85.7852   11.7844 S.3     1  UNL1       -0.0724
     41 C          62.8126   84.6404   11.3372 C.3     1  UNL1        0.0913
     42 C          62.7240   83.3173   12.0382 C.ar    1  UNL1       -0.0108
     43 C          62.4104   83.2647   13.5042 C.ar    1  UNL1       -0.0011
     44 C          62.3217   81.9416   14.2052 C.ar    1  UNL1        0.0293
     45 C          62.5467   80.6710   13.4403 C.ar    1  UNL1        0.1401
     46 F          62.4580   79.3479   14.1413 F       1  UNL1       -0.2042
     47 C          62.8603   80.7236   11.9744 C.ar    1  UNL1        0.0293
     48 C          62.9489   82.0467   11.2733 C.ar    1  UNL1       -0.0011
@<TRIPOS>BOND
     1     7     8    1
     2     8     6    1
     3     6     9    1
     4     9    10    1
     5     6     5    1
     6     5     4    1
     7     4     1    1
     8     1    11    1
     9    11    12    1
    10    12    13   ar
    11    13    14   ar
    12    14    15   ar
    13    15    18    1
    14    18    19   ar
    15    19    20   ar
    16    20    21   ar
    17    21    24    1
    18    24    25    1
    19    24    26    1
    20    24    27    1
    21    21    22   ar
    22    22    23   ar
    23    15    16   ar
    24    16    17   ar
    25     1     2   am
    26     2     3    2
    27     2    28    1
    28    28    29    1
    29    29    30   ar
    30    30    40    1
    31    40    41    1
    32    41    42    1
    33    42    43   ar
    34    43    44   ar
    35    44    45   ar
    36    45    46    1
    37    45    47   ar
    38    47    48   ar
    39    30    31   ar
    40    31    32   ar
    41    32    33    2
    42    32    34   ar
    43    34    35   ar
    44    35    36    1
    45    36    37    1
    46    37    38    1
    47    38    39    1
    48    17    12   ar
    49    35    29   ar
    50    23    18   ar
    51    48    42   ar
    52    39    34    1
@<TRIPOS>MOLECULE
*****
 48 52 0 0 0
SMALL
GASTEIGER

@<TRIPOS>ATOM
      1 N          62.1464   89.3976   10.3870 N.am    1  UNL1       -0.2724
      2 C          62.8610   89.4707   11.7038 C.2     1  UNL1        0.2491
      3 O          63.8352   88.3970   12.0890 O.2     1  UNL1       -0.2727
      4 C          61.1722   90.4712   10.0018 C.3     1  UNL1        0.1111
      5 C          59.7931   90.1025    9.5414 C.3     1  UNL1        0.0939
      6 N          59.6139   89.1324    8.4114 N.3     1  UNL1       -0.2712
      7 C          59.4445   86.6289    7.7376 C.3     1  UNL1        0.0188
      8 C          59.1181   87.7437    8.6867 C.3     1  UNL1        0.0722
      9 C          59.9306   89.5509    7.0063 C.3     1  UNL1        0.0722
     10 C          58.8375   90.0481    6.1075 C.3     1  UNL1        0.0188
     11 C          62.4059   88.2509    9.4554 C.3     1  UNL1        0.1202
     12 C          62.4466   86.8483    9.9856 C.ar    1  UNL1       -0.0023
     13 C          63.0417   85.7498    9.1556 C.ar    1  UNL1       -0.0026
     14 C          63.0824   84.3472    9.6858 C.ar    1  UNL1       -0.0003
     15 C          62.5279   84.0432   11.0459 C.ar    1  UNL1       -0.0000
     16 C          61.9328   85.1418   11.8760 C.ar    1  UNL1       -0.0003
     17 C          61.8921   86.5443   11.3458 C.ar    1  UNL1       -0.0026
     18 C          62.5686   82.6406   11.5761 C.ar    1  UNL1       -0.0000
     19 C          63.0471   81.5211   10.6998 C.ar    1  UNL1       -0.0001
     20 C          63.0877   80.1185   11.2300 C.ar    1  UNL1        0.0039
     21 C          62.6500   79.8354   12.6364 C.ar    1  UNL1        0.0714
     22 C          62.1715   80.9549   13.5128 C.ar    1  UNL1        0.0039
     23 C          62.1308   82.3574   12.9826 C.ar    1  UNL1       -0.0001
     24 C          62.6907   78.4328   13.1666 C.3     1  UNL1        0.4186
     25 F          62.7313   77.0302   13.6968 F       1  UNL1       -0.1659
     26 F          62.6737   78.9627   14.5698 F       1  UNL1       -0.1659
     27 F          62.7076   77.9029   11.7634 F       1  UNL1       -0.1659
     28 C          62.6015   90.6173   12.6354 C.3     1  UNL1        0.1931
     29 N          63.7389   91.2500   13.3810 N.ar    1  UNL1       -0.3030
     30 C          63.8780   91.0362   14.8592 C.ar    1  UNL1        0.1747
     31 N          65.0154   91.6689   15.6048 N.ar    1  UNL1       -0.1847
     32 C          66.0137   92.5155   14.8723 C.ar    1  UNL1        0.2779
     33 O          67.1511   93.1483   15.6180 O.2     1  UNL1       -0.2654
     34 C          65.8747   92.7294   13.3941 C.ar    1  UNL1        0.0474
     35 C          64.7373   92.0966   12.6485 C.ar    1  UNL1        0.0399
     36 C          64.5983   92.3105   11.1704 C.3     1  UNL1        0.0437
     37 C          65.5966   93.1570   10.4379 C.3     1  UNL1        0.0066
     38 C          66.7340   93.7898   11.1835 C.3     1  UNL1        0.0053
     39 C          66.8730   93.5759   12.6616 C.3     1  UNL1        0.0324
     40 S          62.8796   90.1896   15.5917 S.3     1  UNL1       -0.0724
     41 C          63.3427   89.2210   16.6392 C.3     1  UNL1        0.0913
     42 C          63.4679   87.7630   16.3095 C.ar    1  UNL1       -0.0108
     43 C          64.2819   87.3287   15.1267 C.ar    1  UNL1       -0.0011
     44 C          64.4071   85.8708   14.7971 C.ar    1  UNL1        0.0293
     45 C          63.7184   84.8471   15.6502 C.ar    1  UNL1        0.1401
     46 F          63.8437   83.3892   15.3205 F       1  UNL1       -0.2042
     47 C          62.9045   85.2813   16.8329 C.ar    1  UNL1        0.0293
     48 C          62.7793   86.7393   17.1626 C.ar    1  UNL1       -0.0011
@<TRIPOS>BOND
     1     7     8    1
     2     8     6    1
     3     6     9    1
     4     9    10    1
     5     6     5    1
     6     5     4    1
     7     4     1    1
     8     1    11    1
     9    11    12    1
    10    12    13   ar
    11    13    14   ar
    12    14    15   ar
    13    15    18    1
    14    18    19   ar
    15    19    20   ar
    16    20    21   ar
    17    21    24    1
    18    24    25    1
    19    24    26    1
    20    24    27    1
    21    21    22   ar
    22    22    23   ar
    23    15    16   ar
    24    16    17   ar
    25     1     2   am
    26     2     3    2
    27     2    28    1
    28    28    29    1
    29    29    30   ar
    30    30    40    1
    31    40    41    1
    32    41    42    1
    33    42    43   ar
    34    43    44   ar
    35    44    45   ar
    36    45    46    1
    37    45    47   ar
    38    47    48   ar
    39    30    31   ar
    40    31    32   ar
    41    32    33    2
    42    32    34   ar
    43    34    35   ar
    44    35    36    1
    45    36    37    1
    46    37    38    1
    47    38    39    1
    48    17    12   ar
    49    35    29   ar
    50    23    18   ar
    51    48    42   ar
    52    39    34    1
@<TRIPOS>MOLECULE
*****
 48 52 0 0 0
SMALL
GASTEIGER

@<TRIPOS>ATOM
      1 N          61.4304   87.1599   11.1175 N.am    1  UNL1       -0.2724
      2 C          62.0600   88.2611   11.9181 C.2     1  UNL1        0.2491
      3 O          61.3844   89.5967   12.0176 O.2     1  UNL1       -0.2727
      4 C          62.1059   85.8244   11.0181 C.3     1  UNL1        0.1111
      5 C          61.8659   84.9497    9.8234 C.3     1  UNL1        0.0939
      6 N          63.0234   84.4820    8.9917 N.3     1  UNL1       -0.2712
      7 C          61.8067   84.8066    6.7192 C.3     1  UNL1        0.0188
      8 C          63.0709   84.7995    7.5265 C.3     1  UNL1        0.0722
      9 C          64.1333   83.6967    9.6253 C.3     1  UNL1        0.0722
     10 C          63.8432   82.3732   10.2688 C.3     1  UNL1        0.0188
     11 C          60.1251   87.3944   10.4164 C.3     1  UNL1        0.1202
     12 C          60.0781   88.2505    9.1856 C.ar    1  UNL1       -0.0023
     13 C          60.6940   89.6181    9.1994 C.ar    1  UNL1       -0.0026
     14 C          60.6470   90.4743    7.9686 C.ar    1  UNL1       -0.0003
     15 C          59.9841   89.9628    6.7241 C.ar    1  UNL1       -0.0000
     16 C          59.3682   88.5951    6.7103 C.ar    1  UNL1       -0.0003
     17 C          59.4152   87.7390    7.9410 C.ar    1  UNL1       -0.0026
     18 C          59.9371   90.8190    5.4933 C.ar    1  UNL1       -0.0000
     19 C          58.6386   91.4255    5.0507 C.ar    1  UNL1       -0.0001
     20 C          58.5916   92.2816    3.8200 C.ar    1  UNL1        0.0039
     21 C          59.8431   92.5313    3.0318 C.ar    1  UNL1        0.0714
     22 C          61.1418   91.9247    3.4743 C.ar    1  UNL1        0.0039
     23 C          61.1888   91.0686    4.7051 C.ar    1  UNL1       -0.0001
     24 C          59.7961   93.3874    1.8010 C.3     1  UNL1        0.4186
     25 F          59.7491   94.2436    0.5702 F       1  UNL1       -0.1659
     26 F          59.5664   92.1665    0.9604 F       1  UNL1       -0.1659
     27 F          60.0259   94.6084    2.6415 F       1  UNL1       -0.1659
     28 C          63.3652   88.0267   12.6192 C.3     1  UNL1        0.1931
     29 N          63.3778   87.5881   14.0536 N.ar    1  UNL1       -0.3030
     30 C          63.3404   88.6101   15.1508 C.ar    1  UNL1        0.1747
     31 N          63.3531   88.1715   16.5852 N.ar    1  UNL1       -0.1847
     32 C          63.4032   86.7107   16.9223 C.ar    1  UNL1        0.2779
     33 O          63.4158   86.2721   18.3567 O.2     1  UNL1       -0.2654
     34 C          63.4406   85.6886   15.8251 C.ar    1  UNL1        0.0474
     35 C          63.4279   86.1273   14.3907 C.ar    1  UNL1        0.0399
     36 C          63.4653   85.1052   13.2935 C.3     1  UNL1        0.0437
     37 C          63.5154   83.6445   13.6306 C.3     1  UNL1        0.0066
     38 C          63.5280   83.2058   15.0650 C.3     1  UNL1        0.0053
     39 C          63.4906   84.2279   16.1622 C.3     1  UNL1        0.0324
     40 S          63.2903   90.0710   14.8137 S.3     1  UNL1       -0.0724
     41 C          64.5542   90.8784   14.7879 C.3     1  UNL1        0.0913
     42 C          65.0396   91.4704   13.4980 C.ar    1  UNL1       -0.0108
     43 C          66.3988   92.1010   13.4268 C.ar    1  UNL1       -0.0011
     44 C          66.8843   92.6930   12.1369 C.ar    1  UNL1        0.0293
     45 C          66.0107   92.6544   10.9182 C.ar    1  UNL1        0.1401
     46 F          66.4962   93.2464    9.6283 F       1  UNL1       -0.2042
     47 C          64.6515   92.0239   10.9894 C.ar    1  UNL1        0.0293
     48 C          64.1660   91.4319   12.2793 C.ar    1  UNL1       -0.0011
@<TRIPOS>BOND
     1     7     8    1
     2     8     6    1
     3     6     9    1
     4     9    10    1
     5     6     5    1
     6     5     4    1
     7     4     1    1
     8     1    11    1
     9    11    12    1
    10    12    13   ar
    11    13    14   ar
    12    14    15   ar
    13    15    18    1
    14    18    19   ar
    15    19    20   ar
    16    20    21   ar
    17    21    24    1
    18    24    25    1
    19    24    26    1
    20    24    27    1
    21    21    22   ar
    22    22    23   ar
    23    15    16   ar
    24    16    17   ar
    25     1     2   am
    26     2     3    2
    27     2    28    1
    28    28    29    1
    29    29    30   ar
    30    30    40    1
    31    40    41    1
    32    41    42    1
    33    42    43   ar
    34    43    44   ar
    35    44    45   ar
    36    45    46    1
    37    45    47   ar
    38    47    48   ar
    39    30    31   ar
    40    31    32   ar
    41    32    33    2
    42    32    34   ar
    43    34    35   ar
    44    35    36    1
    45    36    37    1
    46    37    38    1
    47    38    39    1
    48    17    12   ar
    49    35    29   ar
    50    23    18   ar
    51    48    42   ar
    52    39    34    1
@<TRIPOS>MOLECULE
*****
 48 52 0 0 0
SMALL
GASTEIGER

@<TRIPOS>ATOM
      1 N          61.5096   87.2586   11.0971 N.am    1  UNL1       -0.2724
      2 C          62.0730   88.3565   11.9499 C.2     1  UNL1        0.2491
      3 O          61.3301   89.6518   12.0924 O.2     1  UNL1       -0.2727
      4 C          62.2526   85.9634   10.9545 C.3     1  UNL1        0.1111
      5 C          61.9379   85.0397    9.8153 C.3     1  UNL1        0.0939
      6 N          63.0474   84.4794    8.9755 N.3     1  UNL1       -0.2712
      7 C          63.7351   82.3529   10.3003 C.3     1  UNL1        0.0188
      8 C          64.1097   83.6291    9.6068 C.3     1  UNL1        0.0722
      9 C          63.0946   84.7695    7.5046 C.3     1  UNL1        0.0722
     10 C          61.8356   84.7244    6.6906 C.3     1  UNL1        0.0188
     11 C          60.2033   87.4561   10.3868 C.3     1  UNL1        0.1202
     12 C          60.1414   88.3077    9.1535 C.ar    1  UNL1       -0.0023
     13 C          59.3196   87.8673    7.9785 C.ar    1  UNL1       -0.0026
     14 C          59.2577   88.7189    6.7452 C.ar    1  UNL1       -0.0003
     15 C          60.0176   90.0108    6.6869 C.ar    1  UNL1       -0.0000
     16 C          60.8395   90.4512    7.8619 C.ar    1  UNL1       -0.0003
     17 C          60.9014   89.5997    9.0952 C.ar    1  UNL1       -0.0026
     18 C          59.9557   90.8624    5.4536 C.ar    1  UNL1       -0.0000
     19 C          61.2098   91.1680    4.6895 C.ar    1  UNL1       -0.0001
     20 C          61.1479   92.0196    3.4562 C.ar    1  UNL1        0.0039
     21 C          59.8320   92.5655    2.9870 C.ar    1  UNL1        0.0714
     22 C          58.5778   92.2598    3.7511 C.ar    1  UNL1        0.0039
     23 C          58.6397   91.4083    4.9844 C.ar    1  UNL1       -0.0001
     24 C          59.7701   93.4171    1.7537 C.3     1  UNL1        0.4186
     25 F          59.7082   94.2686    0.5204 F       1  UNL1       -0.1659
     26 F          60.9880   94.1650    2.2091 F       1  UNL1       -0.1659
     27 F          58.5522   92.6691    1.2984 F       1  UNL1       -0.1659
     28 C          63.3794   88.1591   12.6602 C.3     1  UNL1        0.1931
     29 N          63.3945   87.7115   14.0918 N.ar    1  UNL1       -0.3030
     30 C          63.3365   88.7257   15.1953 C.ar    1  UNL1        0.1747
     31 N          63.3516   88.2781   16.6269 N.ar    1  UNL1       -0.1847
     32 C          63.4249   86.8163   16.9549 C.ar    1  UNL1        0.2779
     33 O          63.4401   86.3687   18.3865 O.2     1  UNL1       -0.2654
     34 C          63.4830   85.8020   15.8513 C.ar    1  UNL1        0.0474
     35 C          63.4678   86.2496   14.4197 C.ar    1  UNL1        0.0399
     36 C          63.5259   85.2353   13.3162 C.3     1  UNL1        0.0437
     37 C          63.5991   83.7735   13.6442 C.3     1  UNL1        0.0066
     38 C          63.6143   83.3259   15.0758 C.3     1  UNL1        0.0053
     39 C          63.5562   84.3401   16.1794 C.3     1  UNL1        0.0324
     40 S          63.2632   90.1876   14.8673 S.3     1  UNL1       -0.0724
     41 C          63.9312   91.1910   15.7601 C.3     1  UNL1        0.0913
     42 C          65.3292   91.6459   15.4628 C.ar    1  UNL1       -0.0108
     43 C          66.0668   92.4987   16.4521 C.ar    1  UNL1       -0.0011
     44 C          67.4649   92.9537   16.1548 C.ar    1  UNL1        0.0293
     45 C          68.1254   92.5559   14.8682 C.ar    1  UNL1        0.1401
     46 F          69.5234   93.0108   14.5709 F       1  UNL1       -0.2042
     47 C          67.3879   91.7031   13.8788 C.ar    1  UNL1        0.0293
     48 C          65.9898   91.2481   14.1761 C.ar    1  UNL1       -0.0011
@<TRIPOS>BOND
     1     7     8    1
     2     8     6    1
     3     6     9    1
     4     9    10    1
     5     6     5    1
     6     5     4    1
     7     4     1    1
     8     1    11    1
     9    11    12    1
    10    12    13   ar
    11    13    14   ar
    12    14    15   ar
    13    15    18    1
    14    18    19   ar
    15    19    20   ar
    16    20    21   ar
    17    21    24    1
    18    24    25    1
    19    24    26    1
    20    24    27    1
    21    21    22   ar
    22    22    23   ar
    23    15    16   ar
    24    16    17   ar
    25     1     2   am
    26     2     3    2
    27     2    28    1
    28    28    29    1
    29    29    30   ar
    30    30    40    1
    31    40    41    1
    32    41    42    1
    33    42    43   ar
    34    43    44   ar
    35    44    45   ar
    36    45    46    1
    37    45    47   ar
    38    47    48   ar
    39    30    31   ar
    40    31    32   ar
    41    32    33    2
    42    32    34   ar
    43    34    35   ar
    44    35    36    1
    45    36    37    1
    46    37    38    1
    47    38    39    1
    48    17    12   ar
    49    35    29   ar
    50    23    18   ar
    51    48    42   ar
    52    39    34    1
@<TRIPOS>MOLECULE
*****
 48 52 0 0 0
SMALL
GASTEIGER

@<TRIPOS>ATOM
      1 N          61.6851   86.7893   10.9708 N.am    1  UNL1       -0.2724
      2 C          62.0806   88.0128   11.7432 C.2     1  UNL1        0.2491
      3 O          61.2215   89.2414   11.6934 O.2     1  UNL1       -0.2727
      4 C          62.5441   85.5607   11.0205 C.3     1  UNL1        0.1111
      5 C          62.4928   84.6575   12.2170 C.3     1  UNL1        0.0939
      6 N          63.5474   83.6085   12.4106 N.3     1  UNL1       -0.2712
      7 C          62.4768   82.7008   14.5970 C.3     1  UNL1        0.0188
      8 C          63.6854   82.9194   13.7358 C.3     1  UNL1        0.0722
      9 C          64.4639   83.2485   11.2791 C.3     1  UNL1        0.0722
     10 C          64.0584   82.1946   10.2918 C.3     1  UNL1        0.0188
     11 C          60.4304   86.7944   10.1486 C.3     1  UNL1        0.1202
     12 C          60.2905   87.7486    8.9997 C.ar    1  UNL1       -0.0023
     13 C          60.9837   89.0782    9.0403 C.ar    1  UNL1       -0.0026
     14 C          60.8438   90.0323    7.8914 C.ar    1  UNL1       -0.0003
     15 C          60.0107   89.6570    6.7019 C.ar    1  UNL1       -0.0000
     16 C          59.3174   88.3274    6.6613 C.ar    1  UNL1       -0.0003
     17 C          59.4573   87.3732    7.8102 C.ar    1  UNL1       -0.0026
     18 C          59.8708   90.6111    5.5530 C.ar    1  UNL1       -0.0000
     19 C          58.5163   91.1276    5.1676 C.ar    1  UNL1       -0.0001
     20 C          58.3764   92.0817    4.0187 C.ar    1  UNL1        0.0039
     21 C          59.5911   92.5195    3.2552 C.ar    1  UNL1        0.0714
     22 C          60.9457   92.0031    3.6406 C.ar    1  UNL1        0.0039
     23 C          61.0856   91.0489    4.7895 C.ar    1  UNL1       -0.0001
     24 C          59.4512   93.4737    2.1063 C.3     1  UNL1        0.4186
     25 F          59.3113   94.4278    0.9574 F       1  UNL1       -0.1659
     26 F          60.1953   94.5187    2.8836 F       1  UNL1       -0.1659
     27 F          58.7071   92.4286    1.3290 F       1  UNL1       -0.1659
     28 C          63.3352   88.0076   12.5653 C.3     1  UNL1        0.1931
     29 N          63.4140   88.8279   13.8187 N.ar    1  UNL1       -0.3030
     30 C          63.6419   90.3080   13.7333 C.ar    1  UNL1        0.1747
     31 N          63.7207   91.1283   14.9867 N.ar    1  UNL1       -0.1847
     32 C          63.5715   90.4684   16.3254 C.ar    1  UNL1        0.2779
     33 O          63.6502   91.2887   17.5788 O.2     1  UNL1       -0.2654
     34 C          63.3435   88.9883   16.4109 C.ar    1  UNL1        0.0474
     35 C          63.2648   88.1680   15.1575 C.ar    1  UNL1        0.0399
     36 C          63.0368   86.6879   15.2428 C.3     1  UNL1        0.0437
     37 C          62.8877   86.0281   16.5816 C.3     1  UNL1        0.0066
     38 C          62.9664   86.8483   17.8350 C.3     1  UNL1        0.0053
     39 C          63.1943   88.3284   17.7496 C.3     1  UNL1        0.0324
     40 S          63.7911   90.9679   12.3945 S.3     1  UNL1       -0.0724
     41 C          65.1025   91.5817   12.0028 C.3     1  UNL1        0.0913
     42 C          65.9928   92.1810   13.0508 C.ar    1  UNL1       -0.0108
     43 C          66.1003   93.6715   13.1806 C.ar    1  UNL1       -0.0011
     44 C          66.9906   94.2708   14.2285 C.ar    1  UNL1        0.0293
     45 C          67.7733   93.3796   15.1467 C.ar    1  UNL1        0.1401
     46 F          68.6636   93.9789   16.1947 F       1  UNL1       -0.2042
     47 C          67.6658   91.8891   15.0170 C.ar    1  UNL1        0.0293
     48 C          66.7755   91.2898   13.9690 C.ar    1  UNL1       -0.0011
@<TRIPOS>BOND
     1     7     8    1
     2     8     6    1
     3     6     9    1
     4     9    10    1
     5     6     5    1
     6     5     4    1
     7     4     1    1
     8     1    11    1
     9    11    12    1
    10    12    13   ar
    11    13    14   ar
    12    14    15   ar
    13    15    18    1
    14    18    19   ar
    15    19    20   ar
    16    20    21   ar
    17    21    24    1
    18    24    25    1
    19    24    26    1
    20    24    27    1
    21    21    22   ar
    22    22    23   ar
    23    15    16   ar
    24    16    17   ar
    25     1     2   am
    26     2     3    2
    27     2    28    1
    28    28    29    1
    29    29    30   ar
    30    30    40    1
    31    40    41    1
    32    41    42    1
    33    42    43   ar
    34    43    44   ar
    35    44    45   ar
    36    45    46    1
    37    45    47   ar
    38    47    48   ar
    39    30    31   ar
    40    31    32   ar
    41    32    33    2
    42    32    34   ar
    43    34    35   ar
    44    35    36    1
    45    36    37    1
    46    37    38    1
    47    38    39    1
    48    17    12   ar
    49    35    29   ar
    50    23    18   ar
    51    48    42   ar
    52    39    34    1
@<TRIPOS>MOLECULE
*****
 48 52 0 0 0
SMALL
GASTEIGER

@<TRIPOS>ATOM
      1 N          61.7834   86.9166   11.0796 N.am    1  UNL1       -0.2724
      2 C          62.2009   88.1355   11.8478 C.2     1  UNL1        0.2491
      3 O          61.3376   89.3621   11.8353 O.2     1  UNL1       -0.2727
      4 C          62.6466   85.6900   11.0920 C.3     1  UNL1        0.1111
      5 C          62.3350   84.5632   12.0317 C.3     1  UNL1        0.0939
      6 N          63.4351   83.6675   12.5196 N.3     1  UNL1       -0.2712
      7 C          62.3651   82.5969   14.6312 C.3     1  UNL1        0.0188
      8 C          63.5144   83.2997   13.9716 C.3     1  UNL1        0.0722
      9 C          64.4557   83.1397   11.5553 C.3     1  UNL1        0.0722
     10 C          64.0144   82.4850   10.2800 C.3     1  UNL1        0.0188
     11 C          60.5025   86.9245   10.2989 C.3     1  UNL1        0.1202
     12 C          60.3448   87.8458    9.1257 C.ar    1  UNL1       -0.0023
     13 C          59.6707   87.3609    7.8766 C.ar    1  UNL1       -0.0026
     14 C          59.5131   88.2822    6.7034 C.ar    1  UNL1       -0.0003
     15 C          60.0296   89.6884    6.7794 C.ar    1  UNL1       -0.0000
     16 C          60.7037   90.1734    8.0286 C.ar    1  UNL1       -0.0003
     17 C          60.8614   89.2521    9.2017 C.ar    1  UNL1       -0.0026
     18 C          59.8720   90.6098    5.6062 C.ar    1  UNL1       -0.0000
     19 C          61.0711   91.0045    4.7962 C.ar    1  UNL1       -0.0001
     20 C          60.9134   91.9258    3.6230 C.ar    1  UNL1        0.0039
     21 C          59.5567   92.4524    3.2599 C.ar    1  UNL1        0.0714
     22 C          58.3575   92.0576    4.0699 C.ar    1  UNL1        0.0039
     23 C          58.5151   91.1363    5.2431 C.ar    1  UNL1       -0.0001
     24 C          59.3991   93.3737    2.0867 C.3     1  UNL1        0.4186
     25 F          59.2414   94.2950    0.9135 F       1  UNL1       -0.1659
     26 F          60.1529   94.4409    2.8235 F       1  UNL1       -0.1659
     27 F          58.6453   92.3065    1.3499 F       1  UNL1       -0.1659
     28 C          63.4817   88.1276   12.6284 C.3     1  UNL1        0.1931
     29 N          63.5866   88.9078   13.9052 N.ar    1  UNL1       -0.3030
     30 C          63.9600   90.3601   13.8683 C.ar    1  UNL1        0.1747
     31 N          64.0649   91.1403   15.1451 N.ar    1  UNL1       -0.1847
     32 C          63.7964   90.4682   16.4589 C.ar    1  UNL1        0.2779
     33 O          63.9013   91.2484   17.7357 O.2     1  UNL1       -0.2654
     34 C          63.4230   89.0158   16.4959 C.ar    1  UNL1        0.0474
     35 C          63.3181   88.2356   15.2191 C.ar    1  UNL1        0.0399
     36 C          62.9447   86.7834   15.2561 C.3     1  UNL1        0.0437
     37 C          62.6763   86.1113   16.5699 C.3     1  UNL1        0.0066
     38 C          62.7812   86.8915   17.8467 C.3     1  UNL1        0.0053
     39 C          63.1545   88.3437   17.8097 C.3     1  UNL1        0.0324
     40 S          64.2285   91.0323   12.5544 S.3     1  UNL1       -0.0724
     41 C          64.8058   92.4164   12.5242 C.3     1  UNL1        0.0913
     42 C          65.7444   92.8136   11.4237 C.ar    1  UNL1       -0.0108
     43 C          66.9145   91.9388   11.0837 C.ar    1  UNL1       -0.0011
     44 C          67.8532   92.3360    9.9832 C.ar    1  UNL1        0.0293
     45 C          67.6218   93.6081    9.2228 C.ar    1  UNL1        0.1401
     46 F          68.5605   94.0054    8.1223 F       1  UNL1       -0.2042
     47 C          66.4518   94.4830    9.5628 C.ar    1  UNL1        0.0293
     48 C          65.5131   94.0857   10.6633 C.ar    1  UNL1       -0.0011
@<TRIPOS>BOND
     1     7     8    1
     2     8     6    1
     3     6     9    1
     4     9    10    1
     5     6     5    1
     6     5     4    1
     7     4     1    1
     8     1    11    1
     9    11    12    1
    10    12    13   ar
    11    13    14   ar
    12    14    15   ar
    13    15    18    1
    14    18    19   ar
    15    19    20   ar
    16    20    21   ar
    17    21    24    1
    18    24    25    1
    19    24    26    1
    20    24    27    1
    21    21    22   ar
    22    22    23   ar
    23    15    16   ar
    24    16    17   ar
    25     1     2   am
    26     2     3    2
    27     2    28    1
    28    28    29    1
    29    29    30   ar
    30    30    40    1
    31    40    41    1
    32    41    42    1
    33    42    43   ar
    34    43    44   ar
    35    44    45   ar
    36    45    46    1
    37    45    47   ar
    38    47    48   ar
    39    30    31   ar
    40    31    32   ar
    41    32    33    2
    42    32    34   ar
    43    34    35   ar
    44    35    36    1
    45    36    37    1
    46    37    38    1
    47    38    39    1
    48    17    12   ar
    49    35    29   ar
    50    23    18   ar
    51    48    42   ar
    52    39    34    1
@<TRIPOS>MOLECULE
*****
 48 52 0 0 0
SMALL
GASTEIGER

@<TRIPOS>ATOM
      1 N          62.8795   88.7338   15.8131 N.am    1  UNL1       -0.2724
      2 C          63.8433   89.4303   14.8988 C.2     1  UNL1        0.2491
      3 O          65.1693   88.8018   14.5874 O.2     1  UNL1       -0.2727
      4 C          61.5536   89.3622   16.1246 C.3     1  UNL1        0.1111
      5 C          60.2834   88.6354   15.7954 C.3     1  UNL1        0.0939
      6 N          59.5739   88.9129   14.5032 N.3     1  UNL1       -0.2712
      7 C          57.5052   88.5295   12.9788 C.3     1  UNL1        0.0188
      8 C          58.1331   88.5282   14.3410 C.3     1  UNL1        0.0722
      9 C          60.3051   89.5749   13.3732 C.3     1  UNL1        0.0722
     10 C          59.5407   90.1285   12.2074 C.3     1  UNL1        0.0188
     11 C          63.2417   87.4088   16.4160 C.3     1  UNL1        0.1202
     12 C          63.1708   86.1622   15.5849 C.ar    1  UNL1       -0.0023
     13 C          62.4157   84.9676   16.0875 C.ar    1  UNL1       -0.0026
     14 C          62.3448   83.7209   15.2563 C.ar    1  UNL1       -0.0003
     15 C          63.0290   83.6688   13.9226 C.ar    1  UNL1       -0.0000
     16 C          63.7842   84.8635   13.4198 C.ar    1  UNL1       -0.0003
     17 C          63.8551   86.1101   14.2510 C.ar    1  UNL1       -0.0026
     18 C          62.9581   82.4222   13.0914 C.ar    1  UNL1       -0.0000
     19 C          62.5233   81.1290   13.7146 C.ar    1  UNL1       -0.0001
     20 C          62.4524   79.8823   12.8835 C.ar    1  UNL1        0.0039
     21 C          62.8164   79.9289   11.4291 C.ar    1  UNL1        0.0714
     22 C          63.2512   81.2221   10.8058 C.ar    1  UNL1        0.0039
     23 C          63.3221   82.4688   11.6369 C.ar    1  UNL1       -0.0001
     24 C          62.7455   78.6822   10.5979 C.3     1  UNL1        0.4186
     25 F          62.6746   77.4356    9.7668 F       1  UNL1       -0.1659
     26 F          62.8192   77.8482   11.8425 F       1  UNL1       -0.1659
     27 F          62.6718   79.5162    9.3533 F       1  UNL1       -0.1659
     28 C          63.4812   90.7552   14.2959 C.3     1  UNL1        0.1931
     29 N          64.4786   91.4934   13.4531 N.ar    1  UNL1       -0.3030
     30 C          64.3172   91.5335   11.9624 C.ar    1  UNL1        0.1747
     31 N          65.3146   92.2717   11.1196 N.ar    1  UNL1       -0.1847
     32 C          66.4733   92.9698   11.7676 C.ar    1  UNL1        0.2779
     33 O          67.4707   93.7080   10.9248 O.2     1  UNL1       -0.2654
     34 C          66.6348   92.9297   13.2584 C.ar    1  UNL1        0.0474
     35 C          65.6374   92.1915   14.1012 C.ar    1  UNL1        0.0399
     36 C          65.7988   92.1514   15.5919 C.3     1  UNL1        0.0437
     37 C          66.9575   92.8495   16.2398 C.3     1  UNL1        0.0066
     38 C          67.9549   93.5877   15.3971 C.3     1  UNL1        0.0053
     39 C          67.7935   93.6279   13.9063 C.3     1  UNL1        0.0324
     40 S          63.1584   90.8353   11.3144 S.3     1  UNL1       -0.0724
     41 C          63.1917   89.3483   11.1209 C.3     1  UNL1        0.0913
     42 C          62.1066   88.6693   10.3389 C.ar    1  UNL1       -0.0108
     43 C          61.8921   87.1915   10.4809 C.ar    1  UNL1       -0.0011
     44 C          60.8071   86.5125    9.6990 C.ar    1  UNL1        0.0293
     45 C          59.9364   87.3113    8.7749 C.ar    1  UNL1        0.1401
     46 F          58.8513   86.6323    7.9929 F       1  UNL1       -0.2042
     47 C          60.1508   88.7890    8.6328 C.ar    1  UNL1        0.0293
     48 C          61.2359   89.4681    9.4148 C.ar    1  UNL1       -0.0011
@<TRIPOS>BOND
     1     7     8    1
     2     8     6    1
     3     6     9    1
     4     9    10    1
     5     6     5    1
     6     5     4    1
     7     4     1    1
     8     1    11    1
     9    11    12    1
    10    12    13   ar
    11    13    14   ar
    12    14    15   ar
    13    15    18    1
    14    18    19   ar
    15    19    20   ar
    16    20    21   ar
    17    21    24    1
    18    24    25    1
    19    24    26    1
    20    24    27    1
    21    21    22   ar
    22    22    23   ar
    23    15    16   ar
    24    16    17   ar
    25     1     2   am
    26     2     3    2
    27     2    28    1
    28    28    29    1
    29    29    30   ar
    30    30    40    1
    31    40    41    1
    32    41    42    1
    33    42    43   ar
    34    43    44   ar
    35    44    45   ar
    36    45    46    1
    37    45    47   ar
    38    47    48   ar
    39    30    31   ar
    40    31    32   ar
    41    32    33    2
    42    32    34   ar
    43    34    35   ar
    44    35    36    1
    45    36    37    1
    46    37    38    1
    47    38    39    1
    48    17    12   ar
    49    35    29   ar
    50    23    18   ar
    51    48    42   ar
    52    39    34    1
