@<TRIPOS>MOLECULE
*****
 27 30 0 0 0
SMALL
GASTEIGER

@<TRIPOS>ATOM
      1 C          63.5495   89.6952   12.8448 C.ar    1  UNL1       -0.0046
      2 C          62.8147   89.7802   11.5399 C.ar    1  UNL1       -0.0028
      3 C          62.3308   88.5290   10.8689 C.ar    1  UNL1        0.0013
      4 C          62.5817   87.1929   11.5027 C.ar    1  UNL1        0.0189
      5 C          63.3165   87.1079   12.8076 C.ar    1  UNL1        0.0823
      6 C          63.8004   88.3591   13.4787 C.ar    1  UNL1        0.0164
      7 C          64.4913   87.9654   14.7506 C.ar    1  UNL1        0.0217
      8 C          64.4343   86.4709   14.8657 C.ar    1  UNL1        0.0999
      9 N          63.7083   85.9410   13.6648 N.ar    1  UNL1       -0.2077
     10 S          63.4239   84.4975   13.3724 S.O2    1  UNL1        0.0864
     11 O          61.9654   84.8148   13.2242 O.2     1  UNL1       -0.1476
     12 O          64.8825   84.1801   13.5206 O.2     1  UNL1       -0.1476
     13 C          63.1396   83.0539   13.0801 C.ar    1  UNL1        0.1338
     14 C          62.6913   82.1398   14.1816 C.ar    1  UNL1        0.0209
     15 C          62.4070   80.6963   13.8893 C.ar    1  UNL1        0.0014
     16 C          62.5710   80.1669   12.4955 C.ar    1  UNL1        0.0006
     17 C          63.0193   81.0810   11.3939 C.ar    1  UNL1        0.0081
     18 C          63.3036   82.5246   11.6863 C.ar    1  UNL1        0.0536
     19 BR         63.7519   83.4386   10.5847 Br      1  UNL1       -0.0476
     20 C          64.0334   90.9464   13.5160 C.3     1  UNL1        0.0993
     21 C          67.0191   95.0826   10.3571 C.3     1  UNL1        0.0897
     22 N          66.2727   94.0485   11.1468 N.3     1  UNL1       -0.2691
     23 C          65.3291   93.1116   10.4527 C.3     1  UNL1        0.0897
     24 C          64.5827   92.0775   11.2425 C.3     1  UNL1        0.0899
     25 N          64.7798   91.9805   12.7262 N.3     1  UNL1       -0.2665
     26 C          65.7234   92.9175   13.4204 C.3     1  UNL1        0.0899
     27 C          66.4698   93.9515   12.6307 C.3     1  UNL1        0.0897
@<TRIPOS>BOND
     1    21    22    1
     2    22    23    1
     3    23    24    1
     4    24    25    1
     5    25    20    1
     6    20     1    1
     7     1     2   ar
     8     2     3   ar
     9     3     4   ar
    10     4     5   ar
    11     5     6   ar
    12     6     7   ar
    13     7     8   ar
    14     8     9   ar
    15     9    10    1
    16    10    11    2
    17    10    12    2
    18    10    13    1
    19    13    14   ar
    20    14    15   ar
    21    15    16   ar
    22    16    17   ar
    23    17    18   ar
    24    18    19    1
    25    25    26    1
    26    26    27    1
    27    27    22    1
    28     6     1   ar
    29    18    13   ar
    30     9     5   ar
@<TRIPOS>MOLECULE
*****
 27 30 0 0 0
SMALL
GASTEIGER

@<TRIPOS>ATOM
      1 C          63.3704   89.9908   12.4288 C.ar    1  UNL1       -0.0046
      2 C          62.7004   89.9823   11.0868 C.ar    1  UNL1       -0.0028
      3 C          62.2826   88.6826   10.4654 C.ar    1  UNL1        0.0013
      4 C          62.5348   87.3914   11.1859 C.ar    1  UNL1        0.0189
      5 C          63.2047   87.3999   12.5279 C.ar    1  UNL1        0.0823
      6 C          63.6226   88.6996   13.1494 C.ar    1  UNL1        0.0164
      7 C          64.2581   88.3970   14.4740 C.ar    1  UNL1        0.0217
      8 C          64.2330   86.9102   14.6712 C.ar    1  UNL1        0.0999
      9 N          63.5820   86.2940   13.4685 N.ar    1  UNL1       -0.2077
     10 S          63.3491   84.8291   13.2455 S.O2    1  UNL1        0.0864
     11 O          64.7443   84.5363   13.7120 O.2     1  UNL1       -0.1476
     12 O          61.9539   85.1219   12.7789 O.2     1  UNL1       -0.1476
     13 C          63.1162   83.3641   13.0224 C.ar    1  UNL1        0.1338
     14 C          62.6531   82.4973   14.1556 C.ar    1  UNL1        0.0209
     15 C          62.4201   81.0324   13.9326 C.ar    1  UNL1        0.0014
     16 C          62.6503   80.4343   12.5764 C.ar    1  UNL1        0.0006
     17 C          63.1135   81.3011   11.4432 C.ar    1  UNL1        0.0081
     18 C          63.3464   82.7660   11.6663 C.ar    1  UNL1        0.0536
     19 BR         63.8095   83.6328   10.5331 Br      1  UNL1       -0.0476
     20 C          63.7882   91.2905   13.0502 C.3     1  UNL1        0.0993
     21 C          69.5972   92.4024   14.0600 C.3     1  UNL1        0.0897
     22 N          68.1450   92.1244   13.8076 N.3     1  UNL1       -0.2691
     23 C          67.2722   91.6260   14.9210 C.3     1  UNL1        0.0897
     24 C          65.8199   91.3480   14.6685 C.3     1  UNL1        0.0899
     25 N          65.2405   91.5685   13.3027 N.3     1  UNL1       -0.2665
     26 C          66.1133   92.0670   12.1892 C.3     1  UNL1        0.0899
     27 C          67.5655   92.3450   12.4416 C.3     1  UNL1        0.0897
@<TRIPOS>BOND
     1    21    22    1
     2    22    23    1
     3    23    24    1
     4    24    25    1
     5    25    20    1
     6    20     1    1
     7     1     2   ar
     8     2     3   ar
     9     3     4   ar
    10     4     5   ar
    11     5     6   ar
    12     6     7   ar
    13     7     8   ar
    14     8     9   ar
    15     9    10    1
    16    10    11    2
    17    10    12    2
    18    10    13    1
    19    13    14   ar
    20    14    15   ar
    21    15    16   ar
    22    16    17   ar
    23    17    18   ar
    24    18    19    1
    25    25    26    1
    26    26    27    1
    27    27    22    1
    28     6     1   ar
    29    18    13   ar
    30     9     5   ar
@<TRIPOS>MOLECULE
*****
 27 30 0 0 0
SMALL
GASTEIGER

@<TRIPOS>ATOM
      1 C          63.4852   90.1872   13.4046 C.ar    1  UNL1       -0.0046
      2 C          62.9436   90.4838   12.0376 C.ar    1  UNL1       -0.0028
      3 C          62.6282   89.3598   11.0957 C.ar    1  UNL1        0.0013
      4 C          62.8544   87.9392   11.5209 C.ar    1  UNL1        0.0189
      5 C          63.3959   87.6426   12.8879 C.ar    1  UNL1        0.0823
      6 C          63.7113   88.7666   13.8297 C.ar    1  UNL1        0.0164
      7 C          64.2303   88.1710   15.1049 C.ar    1  UNL1        0.0217
      8 C          64.2357   86.6790   14.9511 C.ar    1  UNL1        0.0999
      9 N          63.7200   86.3524   13.5809 N.ar    1  UNL1       -0.2077
     10 S          63.5570   84.9770   13.0049 S.O2    1  UNL1        0.0864
     11 O          64.9047   84.5932   13.5400 O.2     1  UNL1       -0.1476
     12 O          62.2093   85.3609   12.4697 O.2     1  UNL1       -0.1476
     13 C          63.3939   83.6016   12.4288 C.ar    1  UNL1        0.1338
     14 C          63.8308   83.3214   11.0215 C.ar    1  UNL1        0.0209
     15 C          63.6678   81.9461   10.4453 C.ar    1  UNL1        0.0014
     16 C          63.0678   80.8510   11.2765 C.ar    1  UNL1        0.0006
     17 C          62.6309   81.1313   12.6838 C.ar    1  UNL1        0.0081
     18 C          62.7940   82.5067   13.2599 C.ar    1  UNL1        0.0536
     19 BR         62.3570   82.7869   14.6672 Br      1  UNL1       -0.0476
     20 C          63.8006   91.3112   14.3465 C.3     1  UNL1        0.0993
     21 C          69.4976   92.9699   15.2369 C.3     1  UNL1        0.0897
     22 N          68.0733   92.5552   15.0143 N.3     1  UNL1       -0.2691
     23 C          67.0661   92.7112   16.1147 C.3     1  UNL1        0.0897
     24 C          65.6418   92.2966   15.8921 C.3     1  UNL1        0.0899
     25 N          65.2248   91.7259   14.5691 N.3     1  UNL1       -0.2665
     26 C          66.2322   91.5698   13.4686 C.3     1  UNL1        0.0899
     27 C          67.6564   91.9845   13.6912 C.3     1  UNL1        0.0897
@<TRIPOS>BOND
     1    21    22    1
     2    22    23    1
     3    23    24    1
     4    24    25    1
     5    25    20    1
     6    20     1    1
     7     1     2   ar
     8     2     3   ar
     9     3     4   ar
    10     4     5   ar
    11     5     6   ar
    12     6     7   ar
    13     7     8   ar
    14     8     9   ar
    15     9    10    1
    16    10    11    2
    17    10    12    2
    18    10    13    1
    19    13    14   ar
    20    14    15   ar
    21    15    16   ar
    22    16    17   ar
    23    17    18   ar
    24    18    19    1
    25    25    26    1
    26    26    27    1
    27    27    22    1
    28     6     1   ar
    29    18    13   ar
    30     9     5   ar
@<TRIPOS>MOLECULE
*****
 27 30 0 0 0
SMALL
GASTEIGER

@<TRIPOS>ATOM
      1 C          63.5136   89.9141   12.6746 C.ar    1  UNL1       -0.0046
      2 C          62.7720   90.0060   11.3740 C.ar    1  UNL1       -0.0028
      3 C          62.2931   88.7577   10.6940 C.ar    1  UNL1        0.0013
      4 C          62.5559   87.4176   11.3145 C.ar    1  UNL1        0.0189
      5 C          63.2975   87.3257   12.6150 C.ar    1  UNL1        0.0823
      6 C          63.7764   88.5740   13.2951 C.ar    1  UNL1        0.0164
      7 C          64.4759   88.1734   14.5602 C.ar    1  UNL1        0.0217
      8 C          64.4294   86.6776   14.6619 C.ar    1  UNL1        0.0999
      9 N          63.7011   86.1537   13.4597 N.ar    1  UNL1       -0.2077
     10 S          63.4249   84.7111   13.1556 S.O2    1  UNL1        0.0864
     11 O          64.8371   84.3634   13.5225 O.2     1  UNL1       -0.1476
     12 O          62.0126   85.0588   12.7888 O.2     1  UNL1       -0.1476
     13 C          63.1485   83.2684   12.8515 C.ar    1  UNL1        0.1338
     14 C          63.4203   82.7258   11.4798 C.ar    1  UNL1        0.0209
     15 C          63.1440   81.2832   11.1756 C.ar    1  UNL1        0.0014
     16 C          62.5960   80.3832   12.2432 C.ar    1  UNL1        0.0006
     17 C          62.3242   80.9258   13.6149 C.ar    1  UNL1        0.0081
     18 C          62.6006   82.3685   13.9191 C.ar    1  UNL1        0.0536
     19 BR         62.3288   82.9111   15.2908 Br      1  UNL1       -0.0476
     20 C          63.9925   91.1624   13.3547 C.3     1  UNL1        0.0993
     21 C          67.1476   95.2336   10.2774 C.3     1  UNL1        0.0897
     22 N          66.3589   94.2158   11.0467 N.3     1  UNL1       -0.2691
     23 C          66.5001   94.1278   12.5374 C.3     1  UNL1        0.0897
     24 C          65.7113   93.1100   13.3068 C.3     1  UNL1        0.0899
     25 N          64.7813   92.1802   12.5854 N.3     1  UNL1       -0.2665
     26 C          64.6400   92.2682   11.0946 C.3     1  UNL1        0.0899
     27 C          65.4288   93.2860   10.3253 C.3     1  UNL1        0.0897
@<TRIPOS>BOND
     1    21    22    1
     2    22    23    1
     3    23    24    1
     4    24    25    1
     5    25    20    1
     6    20     1    1
     7     1     2   ar
     8     2     3   ar
     9     3     4   ar
    10     4     5   ar
    11     5     6   ar
    12     6     7   ar
    13     7     8   ar
    14     8     9   ar
    15     9    10    1
    16    10    11    2
    17    10    12    2
    18    10    13    1
    19    13    14   ar
    20    14    15   ar
    21    15    16   ar
    22    16    17   ar
    23    17    18   ar
    24    18    19    1
    25    25    26    1
    26    26    27    1
    27    27    22    1
    28     6     1   ar
    29    18    13   ar
    30     9     5   ar
@<TRIPOS>MOLECULE
*****
 27 30 0 0 0
SMALL
GASTEIGER

@<TRIPOS>ATOM
      1 C          63.8402   89.8676   13.4608 C.ar    1  UNL1       -0.0046
      2 C          64.4726   89.6365   14.8012 C.ar    1  UNL1       -0.0028
      3 C          64.6126   88.2412   15.3338 C.ar    1  UNL1        0.0013
      4 C          64.1201   87.0772   14.5261 C.ar    1  UNL1        0.0189
      5 C          63.4877   87.3083   13.1857 C.ar    1  UNL1        0.0823
      6 C          63.3478   88.7035   12.6531 C.ar    1  UNL1        0.0164
      7 C          62.6868   88.6225   11.3089 C.ar    1  UNL1        0.0217
      8 C          62.4183   87.1772   11.0109 C.ar    1  UNL1        0.0999
      9 N          62.9132   86.3650   12.1708 N.ar    1  UNL1       -0.2077
     10 S          62.8456   84.8716   12.2942 S.O2    1  UNL1        0.0864
     11 O          64.0444   84.8918   13.1955 O.2     1  UNL1       -0.1476
     12 O          61.6469   84.8514   11.3928 O.2     1  UNL1       -0.1476
     13 C          62.7780   83.3781   12.4175 C.ar    1  UNL1        0.1338
     14 C          62.1295   82.7533   13.6171 C.ar    1  UNL1        0.0209
     15 C          62.0619   81.2600   13.7405 C.ar    1  UNL1        0.0014
     16 C          62.6426   80.3914   12.6642 C.ar    1  UNL1        0.0006
     17 C          63.2911   81.0162   11.4646 C.ar    1  UNL1        0.0081
     18 C          63.3587   82.5096   11.3413 C.ar    1  UNL1        0.0536
     19 BR         64.0072   83.1344   10.1416 Br      1  UNL1       -0.0476
     20 C          63.7003   91.2629   12.9281 C.3     1  UNL1        0.0993
     21 C          68.2004   93.7627    9.8460 C.3     1  UNL1        0.0897
     22 N          67.0754   93.1377   10.6165 N.3     1  UNL1       -0.2691
     23 C          65.7315   92.9638    9.9733 C.3     1  UNL1        0.0897
     24 C          64.6065   92.3389   10.7439 C.3     1  UNL1        0.0899
     25 N          64.8253   91.8878   12.1576 N.3     1  UNL1       -0.2665
     26 C          66.1692   92.0618   12.8008 C.3     1  UNL1        0.0899
     27 C          67.2943   92.6867   12.0303 C.3     1  UNL1        0.0897
@<TRIPOS>BOND
     1    21    22    1
     2    22    23    1
     3    23    24    1
     4    24    25    1
     5    25    20    1
     6    20     1    1
     7     1     2   ar
     8     2     3   ar
     9     3     4   ar
    10     4     5   ar
    11     5     6   ar
    12     6     7   ar
    13     7     8   ar
    14     8     9   ar
    15     9    10    1
    16    10    11    2
    17    10    12    2
    18    10    13    1
    19    13    14   ar
    20    14    15   ar
    21    15    16   ar
    22    16    17   ar
    23    17    18   ar
    24    18    19    1
    25    25    26    1
    26    26    27    1
    27    27    22    1
    28     6     1   ar
    29    18    13   ar
    30     9     5   ar
@<TRIPOS>MOLECULE
*****
 27 30 0 0 0
SMALL
GASTEIGER

@<TRIPOS>ATOM
      1 C          64.0822   90.7883   15.7614 C.ar    1  UNL1       -0.0046
      2 C          64.9557   91.5779   16.6907 C.ar    1  UNL1       -0.0028
      3 C          65.8729   92.6313   16.1441 C.ar    1  UNL1        0.0013
      4 C          65.9166   92.8953   14.6681 C.ar    1  UNL1        0.0189
      5 C          65.0431   92.1058   13.7388 C.ar    1  UNL1        0.0823
      6 C          64.1259   91.0523   14.2855 C.ar    1  UNL1        0.0164
      7 C          63.3867   90.4381   13.1337 C.ar    1  UNL1        0.0217
      8 C          63.8472   91.1120   11.8752 C.ar    1  UNL1        0.0999
      9 N          64.8708   92.1427   12.2492 N.ar    1  UNL1       -0.2077
     10 S          65.5951   93.0509   11.3002 S.O2    1  UNL1        0.0864
     11 O          64.5598   92.7786   10.2495 O.2     1  UNL1       -0.1476
     12 O          66.6304   93.3231   12.3509 O.2     1  UNL1       -0.1476
     13 C          66.3195   93.9591   10.3512 C.ar    1  UNL1        0.1338
     14 C          65.8582   95.3746   10.1685 C.ar    1  UNL1        0.0209
     15 C          66.5825   96.2828    9.2195 C.ar    1  UNL1        0.0014
     16 C          67.7681   95.7755    8.4533 C.ar    1  UNL1        0.0006
     17 C          68.2294   94.3600    8.6361 C.ar    1  UNL1        0.0081
     18 C          67.5050   93.4518    9.5851 C.ar    1  UNL1        0.0536
     19 BR         67.9663   92.0362    9.7679 Br      1  UNL1       -0.0476
     20 C          63.1649   89.7348   16.3081 C.3     1  UNL1        0.0993
     21 C          64.3106   83.9348   15.2845 C.3     1  UNL1        0.0897
     22 N          64.0241   85.3848   15.5404 N.3     1  UNL1       -0.2691
     23 C          64.5629   86.4312   14.6105 C.3     1  UNL1        0.0897
     24 C          64.2765   87.8812   14.8664 C.3     1  UNL1        0.0899
     25 N          63.4513   88.2848   16.0522 N.3     1  UNL1       -0.2665
     26 C          62.9125   87.2384   16.9821 C.3     1  UNL1        0.0899
     27 C          63.1989   85.7884   16.7262 C.3     1  UNL1        0.0897
@<TRIPOS>BOND
     1    21    22    1
     2    22    23    1
     3    23    24    1
     4    24    25    1
     5    25    20    1
     6    20     1    1
     7     1     2   ar
     8     2     3   ar
     9     3     4   ar
    10     4     5   ar
    11     5     6   ar
    12     6     7   ar
    13     7     8   ar
    14     8     9   ar
    15     9    10    1
    16    10    11    2
    17    10    12    2
    18    10    13    1
    19    13    14   ar
    20    14    15   ar
    21    15    16   ar
    22    16    17   ar
    23    17    18   ar
    24    18    19    1
    25    25    26    1
    26    26    27    1
    27    27    22    1
    28     6     1   ar
    29    18    13   ar
    30     9     5   ar
@<TRIPOS>MOLECULE
*****
 27 30 0 0 0
SMALL
GASTEIGER

@<TRIPOS>ATOM
      1 C          63.5428   89.5306   15.5334 C.ar    1  UNL1       -0.0046
      2 C          63.3392   89.0944   16.9540 C.ar    1  UNL1       -0.0028
      3 C          63.1133   87.6453   17.2685 C.ar    1  UNL1        0.0013
      4 C          63.0911   86.6324   16.1624 C.ar    1  UNL1        0.0189
      5 C          63.2947   87.0686   14.7418 C.ar    1  UNL1        0.0823
      6 C          63.5206   88.5177   14.4273 C.ar    1  UNL1        0.0164
      7 C          63.6900   88.6489   12.9426 C.ar    1  UNL1        0.0217
      8 C          63.5688   87.2809   12.3396 C.ar    1  UNL1        0.0999
      9 N          63.3245   86.3042   13.4515 N.ar    1  UNL1       -0.2077
     10 S          63.1421   84.8231   13.2999 S.O2    1  UNL1        0.0864
     11 O          64.4861   84.5935   13.9251 O.2     1  UNL1       -0.1476
     12 O          61.7981   85.0526   12.6747 O.2     1  UNL1       -0.1476
     13 C          62.9596   83.3419   13.1482 C.ar    1  UNL1        0.1338
     14 C          62.3952   82.5360   14.2804 C.ar    1  UNL1        0.0209
     15 C          62.2127   81.0549   14.1288 C.ar    1  UNL1        0.0014
     16 C          62.5945   80.3797   12.8449 C.ar    1  UNL1        0.0006
     17 C          63.1588   81.1856   11.7127 C.ar    1  UNL1        0.0081
     18 C          63.3414   82.6668   11.8644 C.ar    1  UNL1        0.0536
     19 BR         63.9057   83.4727   10.7321 Br      1  UNL1       -0.0476
     20 C          63.7687   90.9798   15.2188 C.3     1  UNL1        0.0993
     21 C          69.3431   93.1976   15.1332 C.3     1  UNL1        0.0897
     22 N          67.9495   92.6431   15.1546 N.3     1  UNL1       -0.2691
     23 C          67.0511   92.9173   16.3241 C.3     1  UNL1        0.0897
     24 C          65.6575   92.3629   16.3455 C.3     1  UNL1        0.0899
     25 N          65.1623   91.5343   15.1974 N.3     1  UNL1       -0.2665
     26 C          66.0607   91.2600   14.0279 C.3     1  UNL1        0.0899
     27 C          67.4543   91.8145   14.0065 C.3     1  UNL1        0.0897
@<TRIPOS>BOND
     1    21    22    1
     2    22    23    1
     3    23    24    1
     4    24    25    1
     5    25    20    1
     6    20     1    1
     7     1     2   ar
     8     2     3   ar
     9     3     4   ar
    10     4     5   ar
    11     5     6   ar
    12     6     7   ar
    13     7     8   ar
    14     8     9   ar
    15     9    10    1
    16    10    11    2
    17    10    12    2
    18    10    13    1
    19    13    14   ar
    20    14    15   ar
    21    15    16   ar
    22    16    17   ar
    23    17    18   ar
    24    18    19    1
    25    25    26    1
    26    26    27    1
    27    27    22    1
    28     6     1   ar
    29    18    13   ar
    30     9     5   ar
@<TRIPOS>MOLECULE
*****
 27 30 0 0 0
SMALL
GASTEIGER

@<TRIPOS>ATOM
      1 C          63.6429   87.9854   13.3579 C.ar    1  UNL1       -0.0046
      2 C          62.8571   88.4074   12.1519 C.ar    1  UNL1       -0.0028
      3 C          62.3434   87.3750   11.1926 C.ar    1  UNL1        0.0013
      4 C          62.6154   85.9207   11.4394 C.ar    1  UNL1        0.0189
      5 C          63.4013   85.4987   12.6453 C.ar    1  UNL1        0.0823
      6 C          63.9150   86.5311   13.6046 C.ar    1  UNL1        0.0164
      7 C          64.6547   85.8199   14.6987 C.ar    1  UNL1        0.0217
      8 C          64.5981   84.3479   14.4156 C.ar    1  UNL1        0.0999
      9 N          63.8234   84.1495   13.1466 N.ar    1  UNL1       -0.2077
     10 S          63.5235   82.8329   12.4934 S.O2    1  UNL1        0.0864
     11 O          64.9847   82.6372   12.2169 O.2     1  UNL1       -0.1476
     12 O          62.0623   83.0286   12.7699 O.2     1  UNL1       -0.1476
     13 C          63.2235   81.5162   11.8402 C.ar    1  UNL1        0.1338
     14 C          63.3785   81.3627   10.3562 C.ar    1  UNL1        0.0209
     15 C          63.0786   80.0462    9.7030 C.ar    1  UNL1        0.0014
     16 C          62.6236   78.8831   10.5338 C.ar    1  UNL1        0.0006
     17 C          62.4686   79.0366   12.0179 C.ar    1  UNL1        0.0081
     18 C          62.7686   80.3532   12.6710 C.ar    1  UNL1        0.0536
     19 BR         62.6136   80.5067   14.1551 Br      1  UNL1       -0.0476
     20 C          64.1567   89.0178   14.3172 C.3     1  UNL1        0.0993
     21 C          66.2342   94.2564   12.2577 C.3     1  UNL1        0.0897
     22 N          65.7148   92.9468   12.7726 N.3     1  UNL1       -0.2691
     23 C          64.6501   92.2117   12.0138 C.3     1  UNL1        0.0897
     24 C          64.1307   90.9021   12.5286 C.3     1  UNL1        0.0899
     25 N          64.6761   90.3275   13.8023 N.3     1  UNL1       -0.2665
     26 C          65.7410   91.0626   14.5612 C.3     1  UNL1        0.0899
     27 C          66.2603   92.3722   14.0463 C.3     1  UNL1        0.0897
@<TRIPOS>BOND
     1    21    22    1
     2    22    23    1
     3    23    24    1
     4    24    25    1
     5    25    20    1
     6    20     1    1
     7     1     2   ar
     8     2     3   ar
     9     3     4   ar
    10     4     5   ar
    11     5     6   ar
    12     6     7   ar
    13     7     8   ar
    14     8     9   ar
    15     9    10    1
    16    10    11    2
    17    10    12    2
    18    10    13    1
    19    13    14   ar
    20    14    15   ar
    21    15    16   ar
    22    16    17   ar
    23    17    18   ar
    24    18    19    1
    25    25    26    1
    26    26    27    1
    27    27    22    1
    28     6     1   ar
    29    18    13   ar
    30     9     5   ar
