@<TRIPOS>MOLECULE
*****
 31 34 0 0 0
SMALL
GASTEIGER

@<TRIPOS>ATOM
      1 C          64.6834   86.4807   14.8040 C.3     1  UNL1        0.0234
      2 C          63.8838   86.6834   13.5511 C.3     1  UNL1        0.0968
      3 C          63.5225   85.4359   12.8006 C.3     1  UNL1        0.1109
      4 N          62.7394   85.3038   11.5281 N.pl3   1  UNL1       -0.3009
      5 C          62.1241   86.3864   10.6918 C.ar    1  UNL1        0.0651
      6 C          61.4237   85.8209    9.4920 C.ar    1  UNL1        0.1131
      7 N          60.7392   86.7375    8.5219 N.ar    1  UNL1       -0.2410
      8 C          60.7551   88.2198    8.7516 C.ar    1  UNL1        0.0987
      9 C          61.4555   88.7853    9.9514 C.ar    1  UNL1        0.0192
     10 C          62.1400   87.8686   10.9215 C.ar    1  UNL1        0.0122
     11 C          62.7751   88.6342   12.0443 C.3     1  UNL1        0.1007
     12 C          62.6127   90.1244   11.9894 C.3     1  UNL1        0.0265
     13 N          63.5512   88.1068   13.2146 N.am    1  UNL1       -0.2620
     14 C          64.0621   89.1392   14.1752 C.2     1  UNL1        0.3044
     15 O          64.8504   88.7178   15.3799 O.2     1  UNL1       -0.2526
     16 N          63.7848   90.5931   13.9314 N.am    1  UNL1       -0.2847
     17 H          63.2674   90.8696   13.1408 H       1  UNL1        0.1513
     18 C          62.5460   83.9038   11.0254 C.3     1  UNL1        0.1178
     19 C          62.5162   82.7572   11.9920 C.ar    1  UNL1       -0.0024
     20 C          62.8188   81.3672   11.5163 C.ar    1  UNL1       -0.0026
     21 C          62.7891   80.2206   12.4829 C.ar    1  UNL1       -0.0003
     22 C          62.4567   80.4640   13.9252 C.ar    1  UNL1       -0.0000
     23 C          62.1542   81.8539   14.4009 C.ar    1  UNL1       -0.0003
     24 C          62.1839   83.0006   13.4344 C.ar    1  UNL1       -0.0026
     25 C          64.2957   91.6256   14.8921 C.3     1  UNL1        0.1177
     26 C          65.7574   91.9608   14.9255 C.ar    1  UNL1       -0.0025
     27 C          66.6258   91.6480   13.7432 C.ar    1  UNL1       -0.0026
     28 C          68.0874   91.9832   13.7766 C.ar    1  UNL1       -0.0003
     29 C          68.6807   92.6312   14.9925 C.ar    1  UNL1       -0.0000
     30 C          67.8123   92.9439   16.1748 C.ar    1  UNL1       -0.0003
     31 C          66.3506   92.6087   16.1414 C.ar    1  UNL1       -0.0026
@<TRIPOS>BOND
     1     2     1    1
     2     2     3    1
     3     3     4    1
     4     4    18    1
     5    18    19    1
     6    19    20   ar
     7    20    21   ar
     8    21    22   ar
     9    22    23   ar
    10    23    24   ar
    11     4     5    1
    12     5     6   ar
    13     6     7   ar
    14     7     8   ar
    15     8     9   ar
    16     9    10   ar
    17    10    11    1
    18    11    12    1
    19    11    13    1
    20    13    14   am
    21    14    15    2
    22    14    16   am
    23    16    25    1
    24    25    26    1
    25    26    27   ar
    26    27    28   ar
    27    28    29   ar
    28    29    30   ar
    29    30    31   ar
    30    13     2    1
    31    31    26   ar
    32    24    19   ar
    33    10     5   ar
    34    16    17    1
@<TRIPOS>MOLECULE
*****
 31 34 0 0 0
SMALL
GASTEIGER

@<TRIPOS>ATOM
      1 C          63.1510   91.3038    9.6933 C.3     1  UNL1        0.0234
      2 C          63.9648   91.5933   10.9196 C.3     1  UNL1        0.0968
      3 C          64.6807   92.9114   10.9295 C.3     1  UNL1        0.1109
      4 N          65.5637   93.4880   11.9962 N.pl3   1  UNL1       -0.3009
      5 C          65.9490   92.8891   13.3163 C.ar    1  UNL1        0.0651
      6 C          66.8551   93.8015   14.0886 C.ar    1  UNL1        0.1131
      7 N          67.3586   93.3903   15.4404 N.ar    1  UNL1       -0.2410
      8 C          66.9559   92.0667   16.0199 C.ar    1  UNL1        0.0987
      9 C          66.0498   91.1542   15.2477 C.ar    1  UNL1        0.0192
     10 C          65.5464   91.5654   13.8959 C.ar    1  UNL1        0.0122
     11 C          64.6590   90.5139   13.2984 C.3     1  UNL1        0.1007
     12 C          64.4476   89.2879   14.1363 C.3     1  UNL1        0.0265
     13 N          63.9552   90.5262   11.9739 N.am    1  UNL1       -0.2620
     14 C          63.1330   89.3110   11.6624 C.2     1  UNL1        0.3044
     15 O          62.3882   89.2221   10.3633 O.2     1  UNL1       -0.2526
     16 N          63.0555   88.1846   12.6499 N.am    1  UNL1       -0.2847
     17 H          63.5443   88.2429   13.5025 H       1  UNL1        0.1513
     18 C          66.1373   94.8429   11.7040 C.3     1  UNL1        0.1178
     19 C          66.1782   95.3518   10.2936 C.ar    1  UNL1       -0.0024
     20 C          67.2393   94.8658    9.3514 C.ar    1  UNL1       -0.0026
     21 C          67.2802   95.3747    7.9409 C.ar    1  UNL1       -0.0003
     22 C          66.2600   96.3697    7.4727 C.ar    1  UNL1       -0.0000
     23 C          65.1989   96.8557    8.4149 C.ar    1  UNL1       -0.0003
     24 C          65.1580   96.3468    9.8254 C.ar    1  UNL1       -0.0026
     25 C          62.2333   86.9692   12.3385 C.3     1  UNL1        0.1177
     26 C          62.8833   85.6186   12.2807 C.ar    1  UNL1       -0.0025
     27 C          62.7452   84.7720   11.0502 C.ar    1  UNL1       -0.0026
     28 C          63.3951   83.4213   10.9925 C.ar    1  UNL1       -0.0003
     29 C          64.1832   82.9173   12.1651 C.ar    1  UNL1       -0.0000
     30 C          64.3212   83.7641   13.3955 C.ar    1  UNL1       -0.0003
     31 C          63.6713   85.1148   13.4534 C.ar    1  UNL1       -0.0026
@<TRIPOS>BOND
     1     2     1    1
     2     2     3    1
     3     3     4    1
     4     4    18    1
     5    18    19    1
     6    19    20   ar
     7    20    21   ar
     8    21    22   ar
     9    22    23   ar
    10    23    24   ar
    11     4     5    1
    12     5     6   ar
    13     6     7   ar
    14     7     8   ar
    15     8     9   ar
    16     9    10   ar
    17    10    11    1
    18    11    12    1
    19    11    13    1
    20    13    14   am
    21    14    15    2
    22    14    16   am
    23    16    25    1
    24    25    26    1
    25    26    27   ar
    26    27    28   ar
    27    28    29   ar
    28    29    30   ar
    29    30    31   ar
    30    13     2    1
    31    31    26   ar
    32    24    19   ar
    33    10     5   ar
    34    16    17    1
@<TRIPOS>MOLECULE
*****
 31 34 0 0 0
SMALL
GASTEIGER

@<TRIPOS>ATOM
      1 C          64.9570   86.7048   15.4953 C.3     1  UNL1        0.0234
      2 C          64.2581   87.3277   14.3232 C.3     1  UNL1        0.0968
      3 C          64.3910   88.8169   14.2026 C.3     1  UNL1        0.1109
      4 N          63.8174   89.7252   13.1557 N.pl3   1  UNL1       -0.3009
      5 C          62.9693   89.3687   11.9709 C.ar    1  UNL1        0.0651
      6 C          62.6061   90.5846   11.1712 C.ar    1  UNL1        0.1131
      7 N          61.7589   90.4476    9.9410 N.ar    1  UNL1       -0.2410
      8 C          61.2749   89.0946    9.5105 C.ar    1  UNL1        0.0987
      9 C          61.6381   87.8787   10.3103 C.ar    1  UNL1        0.0192
     10 C          62.4852   88.0158   11.5405 C.ar    1  UNL1        0.0122
     11 C          62.7299   86.6852   12.1885 C.3     1  UNL1        0.1007
     12 C          62.1025   85.5048   11.5080 C.3     1  UNL1        0.0265
     13 N          63.5189   86.3789   13.4269 N.am    1  UNL1       -0.2620
     14 C          63.5762   84.9328   13.8211 C.2     1  UNL1        0.3044
     15 O          64.3393   84.5186   15.0442 O.2     1  UNL1       -0.2526
     16 N          62.8703   83.9010   12.9922 N.am    1  UNL1       -0.2847
     17 H          62.3694   84.1729   12.1895 H       1  UNL1        0.1513
     18 C          64.1338   91.1828   13.3145 C.3     1  UNL1        0.1178
     19 C          65.4014   91.6052   13.9963 C.ar    1  UNL1       -0.0024
     20 C          66.6889   91.6452   13.2277 C.ar    1  UNL1       -0.0026
     21 C          67.9565   92.0675   13.9094 C.ar    1  UNL1       -0.0003
     22 C          67.9366   92.4500   15.3597 C.ar    1  UNL1       -0.0000
     23 C          66.6492   92.4100   16.1282 C.ar    1  UNL1       -0.0003
     24 C          65.3815   91.9877   15.4466 C.ar    1  UNL1       -0.0026
     25 C          62.9276   82.4548   13.3864 C.3     1  UNL1        0.1177
     26 C          62.9120   81.3887   12.3314 C.ar    1  UNL1       -0.0025
     27 C          63.2698   81.7298   10.9152 C.ar    1  UNL1       -0.0026
     28 C          63.2542   80.6636    9.8602 C.ar    1  UNL1       -0.0003
     29 C          62.8808   79.2564   10.2213 C.ar    1  UNL1       -0.0000
     30 C          62.5231   78.9154   11.6375 C.ar    1  UNL1       -0.0003
     31 C          62.5386   79.9815   12.6926 C.ar    1  UNL1       -0.0026
@<TRIPOS>BOND
     1     2     1    1
     2     2     3    1
     3     3     4    1
     4     4    18    1
     5    18    19    1
     6    19    20   ar
     7    20    21   ar
     8    21    22   ar
     9    22    23   ar
    10    23    24   ar
    11     4     5    1
    12     5     6   ar
    13     6     7   ar
    14     7     8   ar
    15     8     9   ar
    16     9    10   ar
    17    10    11    1
    18    11    12    1
    19    11    13    1
    20    13    14   am
    21    14    15    2
    22    14    16   am
    23    16    25    1
    24    25    26    1
    25    26    27   ar
    26    27    28   ar
    27    28    29   ar
    28    29    30   ar
    29    30    31   ar
    30    13     2    1
    31    31    26   ar
    32    24    19   ar
    33    10     5   ar
    34    16    17    1
@<TRIPOS>MOLECULE
*****
 31 34 0 0 0
SMALL
GASTEIGER

@<TRIPOS>ATOM
      1 C          62.7404   91.0733    9.8007 C.3     1  UNL1        0.0234
      2 C          62.9531   90.0129   10.8401 C.3     1  UNL1        0.0968
      3 C          62.2277   88.7204   10.6092 C.3     1  UNL1        0.1109
      4 N          62.2332   87.4811   11.4542 N.pl3   1  UNL1       -0.3009
      5 C          62.9653   87.2280   12.7387 C.ar    1  UNL1        0.0651
      6 C          62.6958   85.8478   13.2605 C.ar    1  UNL1        0.1131
      7 N          63.3337   85.3915   14.5390 N.ar    1  UNL1       -0.2410
      8 C          64.2413   86.3154   15.2958 C.ar    1  UNL1        0.0987
      9 C          64.5108   87.6956   14.7741 C.ar    1  UNL1        0.0192
     10 C          63.8729   88.1520   13.4956 C.ar    1  UNL1        0.0122
     11 C          64.2723   89.5571   13.1547 C.3     1  UNL1        0.1007
     12 C          65.2045   90.2218   14.1239 C.3     1  UNL1        0.0265
     13 N          63.8631   90.3853   11.9730 N.am    1  UNL1       -0.2620
     14 C          64.4400   91.7687   11.9166 C.2     1  UNL1        0.3044
     15 O          64.0943   92.6795   10.7760 O.2     1  UNL1       -0.2526
     16 N          65.3625   92.2414   13.0009 N.am    1  UNL1       -0.2847
     17 H          65.5893   91.6436   13.7495 H       1  UNL1        0.1513
     18 C          61.3957   86.3443   10.9477 C.3     1  UNL1        0.1178
     19 C          61.5270   85.8927    9.5233 C.ar    1  UNL1       -0.0024
     20 C          60.3801   86.0674    8.5725 C.ar    1  UNL1       -0.0026
     21 C          60.5113   85.6158    7.1481 C.ar    1  UNL1       -0.0003
     22 C          61.7894   84.9894    6.6746 C.ar    1  UNL1       -0.0000
     23 C          62.9362   84.8147    7.6254 C.ar    1  UNL1       -0.0003
     24 C          62.8050   85.2663    9.0498 C.ar    1  UNL1       -0.0026
     25 C          65.9394   93.6249   12.9445 C.3     1  UNL1        0.1177
     26 C          66.4949   94.1540   11.6556 C.ar    1  UNL1       -0.0025
     27 C          67.3113   93.2616   10.7684 C.ar    1  UNL1       -0.0026
     28 C          67.8667   93.7907    9.4794 C.ar    1  UNL1       -0.0003
     29 C          67.6058   95.2122    9.0776 C.ar    1  UNL1       -0.0000
     30 C          66.7894   96.1045    9.9649 C.ar    1  UNL1       -0.0003
     31 C          66.2339   95.5754   11.2539 C.ar    1  UNL1       -0.0026
@<TRIPOS>BOND
     1     2     1    1
     2     2     3    1
     3     3     4    1
     4     4    18    1
     5    18    19    1
     6    19    20   ar
     7    20    21   ar
     8    21    22   ar
     9    22    23   ar
    10    23    24   ar
    11     4     5    1
    12     5     6   ar
    13     6     7   ar
    14     7     8   ar
    15     8     9   ar
    16     9    10   ar
    17    10    11    1
    18    11    12    1
    19    11    13    1
    20    13    14   am
    21    14    15    2
    22    14    16   am
    23    16    25    1
    24    25    26    1
    25    26    27   ar
    26    27    28   ar
    27    28    29   ar
    28    29    30   ar
    29    30    31   ar
    30    13     2    1
    31    31    26   ar
    32    24    19   ar
    33    10     5   ar
    34    16    17    1
@<TRIPOS>MOLECULE
*****
 31 34 0 0 0
SMALL
GASTEIGER

@<TRIPOS>ATOM
      1 C          62.1966   90.8515   11.1292 C.3     1  UNL1        0.0234
      2 C          62.3934   89.4252   11.5498 C.3     1  UNL1        0.0968
      3 C          61.6768   88.3983   10.7239 C.3     1  UNL1        0.1109
      4 N          61.6706   86.9070   10.8849 N.pl3   1  UNL1       -0.3009
      5 C          62.3795   86.0742   11.9115 C.ar    1  UNL1        0.0651
      6 C          62.1049   84.6125   11.7161 C.ar    1  UNL1        0.1131
      7 N          62.7205   83.6038   12.6399 N.ar    1  UNL1       -0.2410
      8 C          63.6106   84.0566   13.7591 C.ar    1  UNL1        0.0987
      9 C          63.8852   85.5182   13.9544 C.ar    1  UNL1        0.0192
     10 C          63.2697   86.5270   13.0306 C.ar    1  UNL1        0.0122
     11 C          63.6708   87.9245   13.3996 C.3     1  UNL1        0.1007
     12 C          64.5824   88.0486   14.5843 C.3     1  UNL1        0.0265
     13 N          63.2809   89.2143   12.7406 N.am    1  UNL1       -0.2620
     14 C          63.8541   90.4576   13.3534 C.2     1  UNL1        0.3044
     15 O          63.5267   91.8006   12.7706 O.2     1  UNL1       -0.2526
     16 N          64.7546   90.3581   14.5488 N.am    1  UNL1       -0.2847
     17 H          64.9694   89.4767   14.9312 H       1  UNL1        0.1513
     18 C          60.8466   86.1481    9.8874 C.3     1  UNL1        0.1178
     19 C          61.4754   85.6476    8.6208 C.ar    1  UNL1       -0.0024
     20 C          60.6220   85.3670    7.4197 C.ar    1  UNL1       -0.0026
     21 C          61.2507   84.8665    6.1532 C.ar    1  UNL1       -0.0003
     22 C          62.7331   84.6466    6.0879 C.ar    1  UNL1       -0.0000
     23 C          63.5866   84.9272    7.2890 C.ar    1  UNL1       -0.0003
     24 C          62.9578   85.4277    8.5555 C.ar    1  UNL1       -0.0026
     25 C          65.3279   91.6014   15.1616 C.3     1  UNL1        0.1177
     26 C          66.7786   91.9314   14.9708 C.ar    1  UNL1       -0.0025
     27 C          67.5651   92.5338   16.0971 C.ar    1  UNL1       -0.0026
     28 C          69.0158   92.8638   15.9064 C.ar    1  UNL1       -0.0003
     29 C          69.6801   92.5915   14.5893 C.ar    1  UNL1       -0.0000
     30 C          68.8935   91.9892   13.4630 C.ar    1  UNL1       -0.0003
     31 C          67.4428   91.6591   13.6537 C.ar    1  UNL1       -0.0026
@<TRIPOS>BOND
     1     2     1    1
     2     2     3    1
     3     3     4    1
     4     4    18    1
     5    18    19    1
     6    19    20   ar
     7    20    21   ar
     8    21    22   ar
     9    22    23   ar
    10    23    24   ar
    11     4     5    1
    12     5     6   ar
    13     6     7   ar
    14     7     8   ar
    15     8     9   ar
    16     9    10   ar
    17    10    11    1
    18    11    12    1
    19    11    13    1
    20    13    14   am
    21    14    15    2
    22    14    16   am
    23    16    25    1
    24    25    26    1
    25    26    27   ar
    26    27    28   ar
    27    28    29   ar
    28    29    30   ar
    29    30    31   ar
    30    13     2    1
    31    31    26   ar
    32    24    19   ar
    33    10     5   ar
    34    16    17    1
@<TRIPOS>MOLECULE
*****
 31 34 0 0 0
SMALL
GASTEIGER

@<TRIPOS>ATOM
      1 C          62.8616   91.4382    9.3168 C.3     1  UNL1        0.0234
      2 C          63.6526   91.5262   10.5882 C.3     1  UNL1        0.0968
      3 C          64.5104   92.7477   10.7378 C.3     1  UNL1        0.1109
      4 N          65.4086   93.1256   11.8782 N.pl3   1  UNL1       -0.3009
      5 C          65.6709   92.3756   13.1505 C.ar    1  UNL1        0.0651
      6 C          66.6415   93.1084   14.0284 C.ar    1  UNL1        0.1131
      7 N          67.0409   92.5280   15.3526 N.ar    1  UNL1       -0.2410
      8 C          66.4698   91.2147   15.7988 C.ar    1  UNL1        0.0987
      9 C          65.4992   90.4819   14.9208 C.ar    1  UNL1        0.0192
     10 C          65.0998   91.0623   13.5966 C.ar    1  UNL1        0.0122
     11 C          64.1252   90.1747   12.8807 C.3     1  UNL1        0.1007
     12 C          63.7444   88.9140   13.5987 C.3     1  UNL1        0.0265
     13 N          63.4811   90.3811   11.5419 N.am    1  UNL1       -0.2620
     14 C          62.5415   89.2996   11.0980 C.2     1  UNL1        0.3044
     15 O          61.8444   89.4083    9.7742 O.2     1  UNL1       -0.2526
     16 N          62.2988   88.1092   11.9779 N.am    1  UNL1       -0.2847
     17 H          62.7562   88.0379   12.8467 H       1  UNL1        0.1513
     18 C          66.1414   94.4255   11.7261 C.3     1  UNL1        0.1178
     19 C          66.2353   95.0806   10.3799 C.ar    1  UNL1       -0.0024
     20 C          67.2618   94.6162    9.3898 C.ar    1  UNL1       -0.0026
     21 C          67.3557   95.2712    8.0437 C.ar    1  UNL1       -0.0003
     22 C          66.4230   96.3907    7.6877 C.ar    1  UNL1       -0.0000
     23 C          65.3964   96.8551    8.6778 C.ar    1  UNL1       -0.0003
     24 C          65.3025   96.2001   10.0239 C.ar    1  UNL1       -0.0026
     25 C          61.3590   87.0276   11.5340 C.3     1  UNL1        0.1177
     26 C          61.4772   86.4509   10.1543 C.ar    1  UNL1       -0.0025
     27 C          62.7429   85.7643    9.7344 C.ar    1  UNL1       -0.0026
     28 C          62.8610   85.1877    8.3547 C.ar    1  UNL1       -0.0003
     29 C          61.7134   85.2976    7.3950 C.ar    1  UNL1       -0.0000
     30 C          60.4477   85.9843    7.8151 C.ar    1  UNL1       -0.0003
     31 C          60.3295   86.5609    9.1948 C.ar    1  UNL1       -0.0026
@<TRIPOS>BOND
     1     2     1    1
     2     2     3    1
     3     3     4    1
     4     4    18    1
     5    18    19    1
     6    19    20   ar
     7    20    21   ar
     8    21    22   ar
     9    22    23   ar
    10    23    24   ar
    11     4     5    1
    12     5     6   ar
    13     6     7   ar
    14     7     8   ar
    15     8     9   ar
    16     9    10   ar
    17    10    11    1
    18    11    12    1
    19    11    13    1
    20    13    14   am
    21    14    15    2
    22    14    16   am
    23    16    25    1
    24    25    26    1
    25    26    27   ar
    26    27    28   ar
    27    28    29   ar
    28    29    30   ar
    29    30    31   ar
    30    13     2    1
    31    31    26   ar
    32    24    19   ar
    33    10     5   ar
    34    16    17    1
@<TRIPOS>MOLECULE
*****
 31 34 0 0 0
SMALL
GASTEIGER

@<TRIPOS>ATOM
      1 C          62.3399   89.3884    9.7789 C.3     1  UNL1        0.0234
      2 C          63.1781   90.0066   10.8583 C.3     1  UNL1        0.0968
      3 C          63.6389   91.4107   10.6007 C.3     1  UNL1        0.1109
      4 N          64.4800   92.2939   11.4739 N.pl3   1  UNL1       -0.3009
      5 C          65.0681   91.9913   12.8202 C.ar    1  UNL1        0.0651
      6 C          65.8479   93.1570   13.3522 C.ar    1  UNL1        0.1131
      7 N          66.5198   93.0622   14.6899 N.ar    1  UNL1       -0.2410
      8 C          66.4119   91.8015   15.4956 C.ar    1  UNL1        0.0987
      9 C          65.6322   90.6358   14.9636 C.ar    1  UNL1        0.0192
     10 C          64.9603   90.7307   13.6260 C.ar    1  UNL1        0.0122
     11 C          64.2377   89.4614   13.2843 C.3     1  UNL1        0.1007
     12 C          64.3191   88.3699   14.3101 C.3     1  UNL1        0.0265
     13 N          63.4445   89.1391   12.0526 N.am    1  UNL1       -0.2620
     14 C          62.8377   87.7680   12.0096 C.2     1  UNL1        0.3044
     15 O          62.0249   87.3446   10.8220 O.2     1  UNL1       -0.2526
     16 N          63.0435   86.8205   13.1540 N.am    1  UNL1       -0.2847
     17 H          63.5769   87.0984   13.9334 H       1  UNL1        0.1513
     18 C          64.7717   93.6605   10.9285 C.3     1  UNL1        0.1178
     19 C          66.0337   93.9060   10.1557 C.ar    1  UNL1       -0.0024
     20 C          66.3596   95.2876    9.6712 C.ar    1  UNL1       -0.0026
     21 C          67.6215   95.5332    8.8984 C.ar    1  UNL1       -0.0003
     22 C          68.5575   94.3970    8.6102 C.ar    1  UNL1       -0.0000
     23 C          68.2316   93.0155    9.0947 C.ar    1  UNL1       -0.0003
     24 C          66.9697   92.7699    9.8675 C.ar    1  UNL1       -0.0026
     25 C          62.4366   85.4494   13.1109 C.3     1  UNL1        0.1177
     26 C          63.0732   84.3730   12.2826 C.ar    1  UNL1       -0.0025
     27 C          63.7140   83.1928   12.9507 C.ar    1  UNL1       -0.0026
     28 C          64.3506   82.1164   12.1224 C.ar    1  UNL1       -0.0003
     29 C          64.3465   82.2202   10.6260 C.ar    1  UNL1       -0.0000
     30 C          63.7057   83.4005    9.9580 C.ar    1  UNL1       -0.0003
     31 C          63.0691   84.4770   10.7862 C.ar    1  UNL1       -0.0026
@<TRIPOS>BOND
     1     2     1    1
     2     2     3    1
     3     3     4    1
     4     4    18    1
     5    18    19    1
     6    19    20   ar
     7    20    21   ar
     8    21    22   ar
     9    22    23   ar
    10    23    24   ar
    11     4     5    1
    12     5     6   ar
    13     6     7   ar
    14     7     8   ar
    15     8     9   ar
    16     9    10   ar
    17    10    11    1
    18    11    12    1
    19    11    13    1
    20    13    14   am
    21    14    15    2
    22    14    16   am
    23    16    25    1
    24    25    26    1
    25    26    27   ar
    26    27    28   ar
    27    28    29   ar
    28    29    30   ar
    29    30    31   ar
    30    13     2    1
    31    31    26   ar
    32    24    19   ar
    33    10     5   ar
    34    16    17    1
@<TRIPOS>MOLECULE
*****
 31 34 0 0 0
SMALL
GASTEIGER

@<TRIPOS>ATOM
      1 C          62.3226   89.8922    9.7573 C.3     1  UNL1        0.0234
      2 C          62.6862   89.0071   10.9124 C.3     1  UNL1        0.0968
      3 C          62.1439   87.6096   10.8574 C.3     1  UNL1        0.1109
      4 N          62.3255   86.4964   11.8462 N.pl3   1  UNL1       -0.3009
      5 C          63.0942   86.5056   13.1343 C.ar    1  UNL1        0.0651
      6 C          63.0206   85.1767   13.8260 C.ar    1  UNL1        0.1131
      7 N          63.7240   84.9726   15.1350 N.ar    1  UNL1       -0.2410
      8 C          64.5010   86.0974   15.7523 C.ar    1  UNL1        0.0987
      9 C          64.5746   87.4264   15.0606 C.ar    1  UNL1        0.0192
     10 C          63.8712   87.6305   13.7516 C.ar    1  UNL1        0.0122
     11 C          64.0713   89.0238   13.2333 C.3     1  UNL1        0.1007
     12 C          64.9097   89.9235   14.0922 C.3     1  UNL1        0.0265
     13 N          63.5440   89.6365   11.9698 N.am    1  UNL1       -0.2620
     14 C          63.9247   91.0677   11.7322 C.2     1  UNL1        0.3044
     15 O          63.4493   91.7753   10.4979 O.2     1  UNL1       -0.2526
     16 N          64.7808   91.7914   12.7289 N.am    1  UNL1       -0.2847
     17 H          65.0928   91.3270   13.5390 H       1  UNL1        0.1513
     18 C          61.6489   85.2028   11.5014 C.3     1  UNL1        0.1178
     19 C          62.4699   83.9839   11.2006 C.ar    1  UNL1       -0.0024
     20 C          63.5873   84.0598   10.2030 C.ar    1  UNL1       -0.0026
     21 C          64.4083   82.8410    9.9021 C.ar    1  UNL1       -0.0003
     22 C          64.1117   81.5463   10.5990 C.ar    1  UNL1       -0.0000
     23 C          62.9942   81.4704   11.5967 C.ar    1  UNL1       -0.0003
     24 C          62.1733   82.6892   11.8975 C.ar    1  UNL1       -0.0026
     25 C          65.1616   93.2227   12.4914 C.3     1  UNL1        0.1177
     26 C          66.0950   93.5746   11.3711 C.ar    1  UNL1       -0.0025
     27 C          66.1701   94.9875   10.8734 C.ar    1  UNL1       -0.0026
     28 C          67.1035   95.3394    9.7531 C.ar    1  UNL1       -0.0003
     29 C          67.9617   94.2782    9.1306 C.ar    1  UNL1       -0.0000
     30 C          67.8865   92.8653    9.6284 C.ar    1  UNL1       -0.0003
     31 C          66.9532   92.5134   10.7487 C.ar    1  UNL1       -0.0026
@<TRIPOS>BOND
     1     2     1    1
     2     2     3    1
     3     3     4    1
     4     4    18    1
     5    18    19    1
     6    19    20   ar
     7    20    21   ar
     8    21    22   ar
     9    22    23   ar
    10    23    24   ar
    11     4     5    1
    12     5     6   ar
    13     6     7   ar
    14     7     8   ar
    15     8     9   ar
    16     9    10   ar
    17    10    11    1
    18    11    12    1
    19    11    13    1
    20    13    14   am
    21    14    15    2
    22    14    16   am
    23    16    25    1
    24    25    26    1
    25    26    27   ar
    26    27    28   ar
    27    28    29   ar
    28    29    30   ar
    29    30    31   ar
    30    13     2    1
    31    31    26   ar
    32    24    19   ar
    33    10     5   ar
    34    16    17    1
@<TRIPOS>MOLECULE
*****
 31 34 0 0 0
SMALL
GASTEIGER

@<TRIPOS>ATOM
      1 C          64.9189   94.0402    0.3630 C.3     1  UNL1        0.0234
      2 C          63.7243   94.0138   -0.5438 C.3     1  UNL1        0.0968
      3 C          63.9556   94.5128   -1.9394 C.3     1  UNL1        0.1109
      4 N          62.9760   94.6130   -3.0710 N.pl3   1  UNL1       -0.3009
      5 C          61.5234   94.2391   -3.0866 C.ar    1  UNL1        0.0651
      6 C          60.9049   94.4994   -4.4280 C.ar    1  UNL1        0.1131
      7 N          59.4545   94.1933   -4.6573 N.ar    1  UNL1       -0.2410
      8 C          58.6227   93.6267   -3.5450 C.ar    1  UNL1        0.0987
      9 C          59.2412   93.3663   -2.2036 C.ar    1  UNL1        0.0192
     10 C          60.6916   93.6725   -1.9743 C.ar    1  UNL1        0.0122
     11 C          61.1070   93.3400   -0.5719 C.3     1  UNL1        0.1007
     12 C          60.0302   92.7817    0.3107 C.3     1  UNL1        0.0265
     13 N          62.4566   93.4918    0.0648 N.am    1  UNL1       -0.2620
     14 C          62.5510   93.0654    1.4998 C.2     1  UNL1        0.3044
     15 O          63.8563   93.1760    2.2307 O.2     1  UNL1       -0.2526
     16 N          61.3403   92.5283    2.2038 N.am    1  UNL1       -0.2847
     17 H          60.4837   92.4557    1.7240 H       1  UNL1        0.1513
     18 C          63.5212   95.1595   -4.3571 C.3     1  UNL1        0.1178
     19 C          64.2926   94.2673   -5.2840 C.ar    1  UNL1       -0.0024
     20 C          64.0316   92.7903   -5.2932 C.ar    1  UNL1       -0.0026
     21 C          64.8029   91.8980   -6.2200 C.ar    1  UNL1       -0.0003
     22 C          65.8353   92.4829   -7.1376 C.ar    1  UNL1       -0.0000
     23 C          66.0964   93.9600   -7.1284 C.ar    1  UNL1       -0.0003
     24 C          65.3250   94.8522   -6.2016 C.ar    1  UNL1       -0.0026
     25 C          61.4347   92.1018    3.6388 C.3     1  UNL1        0.1177
     26 C          60.2147   91.6028    4.3548 C.ar    1  UNL1       -0.0025
     27 C          60.3350   90.4949    5.3587 C.ar    1  UNL1       -0.0026
     28 C          59.1150   89.9959    6.0746 C.ar    1  UNL1       -0.0003
     29 C          57.7747   90.6049    5.7867 C.ar    1  UNL1       -0.0000
     30 C          57.6545   91.7128    4.7828 C.ar    1  UNL1       -0.0003
     31 C          58.8745   92.2119    4.0668 C.ar    1  UNL1       -0.0026
@<TRIPOS>BOND
     1     2     1    1
     2     2     3    1
     3     3     4    1
     4     4    18    1
     5    18    19    1
     6    19    20   ar
     7    20    21   ar
     8    21    22   ar
     9    22    23   ar
    10    23    24   ar
    11     4     5    1
    12     5     6   ar
    13     6     7   ar
    14     7     8   ar
    15     8     9   ar
    16     9    10   ar
    17    10    11    1
    18    11    12    1
    19    11    13    1
    20    13    14   am
    21    14    15    2
    22    14    16   am
    23    16    25    1
    24    25    26    1
    25    26    27   ar
    26    27    28   ar
    27    28    29   ar
    28    29    30   ar
    29    30    31   ar
    30    13     2    1
    31    31    26   ar
    32    24    19   ar
    33    10     5   ar
    34    16    17    1
