@<TRIPOS>MOLECULE
*****
 31 34 0 0 0
SMALL
GASTEIGER

@<TRIPOS>ATOM
      1 C          61.0057   87.0003    9.5295 C.ar    1  UNL1        0.1104
      2 C          60.1828   86.4477    8.4037 C.ar    1  UNL1        0.0185
      3 C          59.5120   87.3787    7.4377 C.ar    1  UNL1       -0.0013
      4 C          59.6641   88.8624    7.5976 C.ar    1  UNL1       -0.0025
      5 C          60.4870   89.4151    8.7233 C.ar    1  UNL1       -0.0013
      6 C          61.1578   88.4840    9.6894 C.ar    1  UNL1        0.0185
      7 S          61.6765   86.0692   10.4955 S.O2    1  UNL1        0.0305
      8 O          60.9324   86.7097   11.6295 O.2     1  UNL1       -0.1641
      9 O          62.4206   85.4288    9.3614 O.2     1  UNL1       -0.1641
     10 N          63.1402   83.1178   12.5478 N.ar    1  UNL1       -0.2500
     11 C          62.3543   83.6403   11.3819 C.ar    1  UNL1        0.1153
     12 C          62.3473   85.1381   11.4614 C.ar    1  UNL1        0.1497
     13 C          63.1288   85.5415   12.6765 C.ar    1  UNL1        0.1404
     14 N          63.6189   84.2929   13.3480 N.ar    1  UNL1       -0.1663
     15 C          62.7685   80.6003   12.0243 C.3     1  UNL1        0.0263
     16 C          63.4015   81.6739   12.8590 C.3     1  UNL1        0.1054
     17 C          64.2959   81.3036   14.0048 C.3     1  UNL1        0.0263
     18 C          58.9932   89.7935    6.6315 C.3     1  UNL1        0.1167
     19 N          59.8052   90.5094    5.5931 N.am    1  UNL1       -0.2944
     20 C          59.1834   91.6050    4.7788 C.2     1  UNL1        0.2808
     21 O          57.7497   91.9847    5.0030 O.2     1  UNL1       -0.2668
     22 H          60.7461   90.2601    5.4459 H       1  UNL1        0.1501
     23 C          59.9953   92.3208    3.7404 C.ar    1  UNL1        0.1984
     24 C          61.4167   92.0177    3.3692 C.ar    1  UNL1        0.0453
     25 C          61.8283   92.9750    2.2902 C.ar    1  UNL1        0.0409
     26 C          63.1149   93.1476    1.5388 C.ar    1  UNL1        0.0238
     27 C          63.2345   94.2149    0.4916 C.ar    1  UNL1        0.0991
     28 N          62.0675   95.1096    0.1959 N.ar    1  UNL1       -0.2391
     29 C          60.7808   94.9370    0.9474 C.ar    1  UNL1        0.1362
     30 C          60.6612   93.8697    1.9945 C.ar    1  UNL1        0.1646
     31 O          59.5284   93.4654    2.8908 O.2     1  UNL1       -0.4473
@<TRIPOS>BOND
     1    15    16    1
     2    16    17    1
     3    16    10    1
     4    10    11   ar
     5    11    12   ar
     6    12     7    1
     7     7     8    2
     8     7     9    2
     9     7     1    1
    10     1     2   ar
    11     2     3   ar
    12     3     4   ar
    13     4    18    1
    14    18    19    1
    15    19    20   am
    16    20    21    2
    17    20    23    1
    18    23    24   ar
    19    24    25   ar
    20    25    26   ar
    21    26    27   ar
    22    27    28   ar
    23    28    29   ar
    24    29    30   ar
    25    30    31   ar
    26     4     5   ar
    27     5     6   ar
    28    12    13   ar
    29    13    14   ar
    30    14    10   ar
    31     6     1   ar
    32    31    23   ar
    33    30    25   ar
    34    19    22    1
@<TRIPOS>MOLECULE
*****
 31 34 0 0 0
SMALL
GASTEIGER

@<TRIPOS>ATOM
      1 C          60.9904   87.0806    9.4381 C.ar    1  UNL1        0.1104
      2 C          60.1275   86.5163    8.3485 C.ar    1  UNL1        0.0185
      3 C          59.4510   87.4358    7.3755 C.ar    1  UNL1       -0.0013
      4 C          59.6372   88.9196    7.4920 C.ar    1  UNL1       -0.0025
      5 C          60.5000   89.4840    8.5816 C.ar    1  UNL1       -0.0013
      6 C          61.1766   88.5644    9.5546 C.ar    1  UNL1        0.0185
      7 S          61.6670   86.1611   10.4110 S.O2    1  UNL1        0.0305
      8 O          60.9156   86.8025   11.5397 O.2     1  UNL1       -0.1641
      9 O          62.4183   85.5197    9.2824 O.2     1  UNL1       -0.1641
     10 N          63.4198   84.3831   13.3828 N.ar    1  UNL1       -0.2500
     11 C          62.7981   85.6016   12.7674 C.ar    1  UNL1        0.1153
     12 C          62.3435   85.2416   11.3840 C.ar    1  UNL1        0.1497
     13 C          62.6843   83.8006   11.1444 C.ar    1  UNL1        0.1404
     14 N          63.3495   83.2700   12.3797 N.ar    1  UNL1       -0.1663
     15 C          64.3576   85.5450   15.5090 C.3     1  UNL1        0.0263
     16 C          64.0085   84.2934   14.7595 C.3     1  UNL1        0.1054
     17 C          64.2482   82.9522   15.3868 C.3     1  UNL1        0.0263
     18 C          58.9606   89.8392    6.5190 C.3     1  UNL1        0.1167
     19 N          59.7684   90.5539    5.4765 N.am    1  UNL1       -0.2944
     20 C          59.1511   91.6659    4.6814 C.2     1  UNL1        0.2808
     21 O          57.7260   92.0632    4.9288 O.2     1  UNL1       -0.2668
     22 H          60.7037   90.2931    5.3142 H       1  UNL1        0.1501
     23 C          59.9588   92.3806    3.6390 C.ar    1  UNL1        0.1984
     24 C          61.3895   92.0999    3.2864 C.ar    1  UNL1        0.0453
     25 C          61.7927   93.0473    2.1956 C.ar    1  UNL1        0.0409
     26 C          63.0830   93.2331    1.4536 C.ar    1  UNL1        0.0238
     27 C          63.1917   94.2851    0.3900 C.ar    1  UNL1        0.0991
     28 N          62.0101   95.1514    0.0684 N.ar    1  UNL1       -0.2391
     29 C          60.7198   94.9656    0.8103 C.ar    1  UNL1        0.1362
     30 C          60.6111   93.9136    1.8739 C.ar    1  UNL1        0.1646
     31 O          59.4777   93.5015    2.7660 O.2     1  UNL1       -0.4473
@<TRIPOS>BOND
     1    15    16    1
     2    16    17    1
     3    16    10    1
     4    10    11   ar
     5    11    12   ar
     6    12     7    1
     7     7     8    2
     8     7     9    2
     9     7     1    1
    10     1     2   ar
    11     2     3   ar
    12     3     4   ar
    13     4    18    1
    14    18    19    1
    15    19    20   am
    16    20    21    2
    17    20    23    1
    18    23    24   ar
    19    24    25   ar
    20    25    26   ar
    21    26    27   ar
    22    27    28   ar
    23    28    29   ar
    24    29    30   ar
    25    30    31   ar
    26     4     5   ar
    27     5     6   ar
    28    12    13   ar
    29    13    14   ar
    30    14    10   ar
    31     6     1   ar
    32    31    23   ar
    33    30    25   ar
    34    19    22    1
@<TRIPOS>MOLECULE
*****
 31 34 0 0 0
SMALL
GASTEIGER

@<TRIPOS>ATOM
      1 C          63.7263   86.6115   13.7200 C.ar    1  UNL1        0.1104
      2 C          63.3796   87.6494   12.6940 C.ar    1  UNL1        0.0185
      3 C          63.6012   89.1026   12.9927 C.ar    1  UNL1       -0.0013
      4 C          64.1694   89.5179   14.3173 C.ar    1  UNL1       -0.0025
      5 C          64.5161   88.4800   15.3433 C.ar    1  UNL1       -0.0013
      6 C          64.2945   87.0268   15.0447 C.ar    1  UNL1        0.0185
      7 S          63.5047   85.1584   13.4214 S.O2    1  UNL1        0.0305
      8 O          62.2483   85.5028   12.6778 O.2     1  UNL1       -0.1641
      9 O          64.7611   84.8140   14.1649 O.2     1  UNL1       -0.1641
     10 N          62.4394   81.4316   13.2184 N.ar    1  UNL1       -0.2500
     11 C          62.3394   82.7904   13.8456 C.ar    1  UNL1        0.1153
     12 C          63.2831   83.7052   13.1227 C.ar    1  UNL1        0.1497
     13 C          63.9664   82.9117   12.0487 C.ar    1  UNL1        0.1404
     14 N          63.4449   81.5065   12.1078 N.ar    1  UNL1       -0.1663
     15 C          62.2787   78.8507   13.4697 C.3     1  UNL1        0.0263
     16 C          61.6691   80.2119   13.6295 C.3     1  UNL1        0.1054
     17 C          60.2893   80.3533   14.2004 C.3     1  UNL1        0.0263
     18 C          64.3910   90.9711   14.6160 C.3     1  UNL1        0.1167
     19 N          64.6913   91.9286   13.5010 N.am    1  UNL1       -0.2944
     20 C          66.1127   92.1908   13.1000 C.2     1  UNL1        0.2808
     21 O          67.2338   91.4956   13.8139 O.2     1  UNL1       -0.2668
     22 H          63.9554   92.3849   13.0325 H       1  UNL1        0.1501
     23 C          66.4129   93.1483   11.9851 C.ar    1  UNL1        0.1984
     24 C          66.9112   92.7820   10.6185 C.ar    1  UNL1        0.0453
     25 C          67.0739   94.0475    9.8298 C.ar    1  UNL1        0.0409
     26 C          67.5328   94.3024    8.4247 C.ar    1  UNL1        0.0238
     27 C          67.5939   95.7058    7.8987 C.ar    1  UNL1        0.0991
     28 N          67.1962   96.8543    8.7779 N.ar    1  UNL1       -0.2391
     29 C          66.7373   96.5993   10.1830 C.ar    1  UNL1        0.1362
     30 C          66.6761   95.1959   10.7089 C.ar    1  UNL1        0.1646
     31 O          66.2677   94.6402   12.0410 O.2     1  UNL1       -0.4473
@<TRIPOS>BOND
     1    15    16    1
     2    16    17    1
     3    16    10    1
     4    10    11   ar
     5    11    12   ar
     6    12     7    1
     7     7     8    2
     8     7     9    2
     9     7     1    1
    10     1     2   ar
    11     2     3   ar
    12     3     4   ar
    13     4    18    1
    14    18    19    1
    15    19    20   am
    16    20    21    2
    17    20    23    1
    18    23    24   ar
    19    24    25   ar
    20    25    26   ar
    21    26    27   ar
    22    27    28   ar
    23    28    29   ar
    24    29    30   ar
    25    30    31   ar
    26     4     5   ar
    27     5     6   ar
    28    12    13   ar
    29    13    14   ar
    30    14    10   ar
    31     6     1   ar
    32    31    23   ar
    33    30    25   ar
    34    19    22    1
@<TRIPOS>MOLECULE
*****
 31 34 0 0 0
SMALL
GASTEIGER

@<TRIPOS>ATOM
      1 C          63.5159   85.1869   13.5911 C.ar    1  UNL1        0.1104
      2 C          63.1574   86.2518   12.5972 C.ar    1  UNL1        0.0185
      3 C          63.4433   87.6917   12.9049 C.ar    1  UNL1       -0.0013
      4 C          64.0877   88.0670   14.2064 C.ar    1  UNL1       -0.0025
      5 C          64.4463   87.0023   15.2002 C.ar    1  UNL1       -0.0013
      6 C          64.1604   85.5622   14.8926 C.ar    1  UNL1        0.0185
      7 S          63.2300   83.7470   13.2835 S.O2    1  UNL1        0.0305
      8 O          62.3910   83.6487   14.5229 O.2     1  UNL1       -0.1641
      9 O          64.0690   83.8452   12.0440 O.2     1  UNL1       -0.1641
     10 N          62.7132   80.2016   11.7906 N.ar    1  UNL1       -0.2500
     11 C          63.1142   81.6395   11.6433 C.ar    1  UNL1        0.1153
     12 C          62.9441   82.3070   12.9758 C.ar    1  UNL1        0.1497
     13 C          62.4379   81.2817   13.9466 C.ar    1  UNL1        0.1404
     14 N          62.2952   79.9805   13.2142 N.ar    1  UNL1       -0.1663
     15 C          62.6872   77.7092   11.0577 C.3     1  UNL1        0.0263
     16 C          62.7275   79.1666   10.7050 C.3     1  UNL1        0.1054
     17 C          62.7822   79.5889    9.2668 C.3     1  UNL1        0.0263
     18 C          64.3736   89.5071   14.5140 C.3     1  UNL1        0.1167
     19 N          64.8482   90.4261   13.4276 N.am    1  UNL1       -0.2944
     20 C          65.3469   91.7985   13.7709 C.2     1  UNL1        0.2808
     21 O          65.3711   92.2518   15.2005 O.2     1  UNL1       -0.2668
     22 H          64.8323   90.1286   12.4893 H       1  UNL1        0.1501
     23 C          65.8215   92.7175   12.6846 C.ar    1  UNL1        0.1984
     24 C          66.4543   92.2999   11.3903 C.ar    1  UNL1        0.0453
     25 C          66.7705   93.5398   10.6076 C.ar    1  UNL1        0.0409
     26 C          67.4002   93.7438    9.2616 C.ar    1  UNL1        0.0238
     27 C          67.5924   95.1316    8.7260 C.ar    1  UNL1        0.0991
     28 N          67.1549   96.3156    9.5365 N.ar    1  UNL1       -0.2391
     29 C          66.5252   96.1116   10.8826 C.ar    1  UNL1        0.1362
     30 C          66.3330   94.7238   11.4181 C.ar    1  UNL1        0.1646
     31 O          65.7465   94.2155   12.7017 O.2     1  UNL1       -0.4473
@<TRIPOS>BOND
     1    15    16    1
     2    16    17    1
     3    16    10    1
     4    10    11   ar
     5    11    12   ar
     6    12     7    1
     7     7     8    2
     8     7     9    2
     9     7     1    1
    10     1     2   ar
    11     2     3   ar
    12     3     4   ar
    13     4    18    1
    14    18    19    1
    15    19    20   am
    16    20    21    2
    17    20    23    1
    18    23    24   ar
    19    24    25   ar
    20    25    26   ar
    21    26    27   ar
    22    27    28   ar
    23    28    29   ar
    24    29    30   ar
    25    30    31   ar
    26     4     5   ar
    27     5     6   ar
    28    12    13   ar
    29    13    14   ar
    30    14    10   ar
    31     6     1   ar
    32    31    23   ar
    33    30    25   ar
    34    19    22    1
@<TRIPOS>MOLECULE
*****
 31 34 0 0 0
SMALL
GASTEIGER

@<TRIPOS>ATOM
      1 C          60.8665   92.5676    2.9424 C.ar    1  UNL1        0.1104
      2 C          61.7147   91.5950    3.7072 C.ar    1  UNL1        0.0185
      3 C          61.1103   90.7797    4.8116 C.ar    1  UNL1       -0.0013
      4 C          59.6577   90.9368    5.1513 C.ar    1  UNL1       -0.0025
      5 C          58.8096   91.9092    4.3866 C.ar    1  UNL1       -0.0013
      6 C          59.4140   92.7247    3.2821 C.ar    1  UNL1        0.0185
      7 S          61.4710   93.3830    1.8380 S.O2    1  UNL1        0.0305
      8 O          60.3908   94.4101    2.0052 O.2     1  UNL1       -0.1641
      9 O          62.5512   92.3558    1.6708 O.2     1  UNL1       -0.1641
     10 N          63.2466   94.8251   -1.2978 N.ar    1  UNL1       -0.2500
     11 C          62.8207   93.6615   -0.4524 C.ar    1  UNL1        0.1153
     12 C          62.0754   94.1983    0.7335 C.ar    1  UNL1        0.1497
     13 C          62.0406   95.6937    0.6211 C.ar    1  UNL1        0.1404
     14 N          62.7644   96.0811   -0.6343 N.ar    1  UNL1       -0.1663
     15 C          64.7925   95.9372   -3.0651 C.3     1  UNL1        0.0263
     16 C          64.0189   94.7466   -2.5812 C.3     1  UNL1        0.1054
     17 C          64.0178   93.4775   -3.3808 C.3     1  UNL1        0.0263
     18 C          59.0533   90.1213    6.2558 C.3     1  UNL1        0.1167
     19 N          59.9049   89.6643    7.4030 N.am    1  UNL1       -0.2944
     20 C          59.6990   88.3009    7.9933 C.2     1  UNL1        0.2808
     21 O          58.6416   87.3944    7.4365 O.2     1  UNL1       -0.2668
     22 H          60.5989   90.2593    7.7684 H       1  UNL1        0.1501
     23 C          60.5506   87.8439    9.1405 C.ar    1  UNL1        0.1984
     24 C          60.7461   86.4240    9.5826 C.ar    1  UNL1        0.0453
     25 C          61.6725   86.4291   10.7624 C.ar    1  UNL1        0.0409
     26 C          62.2215   85.3218   11.6123 C.ar    1  UNL1        0.0238
     27 C          63.1474   85.6377   12.7493 C.ar    1  UNL1        0.0991
     28 N          63.5245   87.0609   13.0363 N.ar    1  UNL1       -0.2391
     29 C          62.9755   88.1682   12.1864 C.ar    1  UNL1        0.1362
     30 C          62.0495   87.8523   11.0494 C.ar    1  UNL1        0.1646
     31 O          61.3562   88.7267   10.0471 O.2     1  UNL1       -0.4473
@<TRIPOS>BOND
     1    15    16    1
     2    16    17    1
     3    16    10    1
     4    10    11   ar
     5    11    12   ar
     6    12     7    1
     7     7     8    2
     8     7     9    2
     9     7     1    1
    10     1     2   ar
    11     2     3   ar
    12     3     4   ar
    13     4    18    1
    14    18    19    1
    15    19    20   am
    16    20    21    2
    17    20    23    1
    18    23    24   ar
    19    24    25   ar
    20    25    26   ar
    21    26    27   ar
    22    27    28   ar
    23    28    29   ar
    24    29    30   ar
    25    30    31   ar
    26     4     5   ar
    27     5     6   ar
    28    12    13   ar
    29    13    14   ar
    30    14    10   ar
    31     6     1   ar
    32    31    23   ar
    33    30    25   ar
    34    19    22    1
@<TRIPOS>MOLECULE
*****
 31 34 0 0 0
SMALL
GASTEIGER

@<TRIPOS>ATOM
      1 C          60.3144   92.1672    3.6743 C.ar    1  UNL1        0.1104
      2 C          61.2293   91.2553    4.4368 C.ar    1  UNL1        0.0185
      3 C          60.6823   90.3885    5.5320 C.ar    1  UNL1       -0.0013
      4 C          59.2204   90.4336    5.8647 C.ar    1  UNL1       -0.0025
      5 C          58.3054   91.3454    5.1022 C.ar    1  UNL1       -0.0013
      6 C          58.8524   92.2123    4.0070 C.ar    1  UNL1        0.0185
      7 S          60.8614   93.0340    2.5791 S.O2    1  UNL1        0.0305
      8 O          62.2393   92.5072    2.8504 O.2     1  UNL1       -0.1641
      9 O          59.4834   93.5608    2.3078 O.2     1  UNL1       -0.1641
     10 N          62.8249   94.7608   -0.2894 N.ar    1  UNL1       -0.2500
     11 C          62.6598   93.6436    0.6979 C.ar    1  UNL1        0.1153
     12 C          61.4084   93.9007    1.4839 C.ar    1  UNL1        0.1497
     13 C          60.8000   95.1768    0.9825 C.ar    1  UNL1        0.1404
     14 N          61.6754   95.7084   -0.1135 N.ar    1  UNL1       -0.1663
     15 C          63.9257   94.1110   -2.5512 C.3     1  UNL1        0.0263
     16 C          63.9430   94.9051   -1.2787 C.3     1  UNL1        0.1054
     17 C          65.0784   95.8434   -0.9958 C.3     1  UNL1        0.0263
     18 C          58.6734   89.5668    6.9599 C.3     1  UNL1        0.1167
     19 N          59.4906   88.4278    7.4938 N.am    1  UNL1       -0.2944
     20 C          60.1201   88.5282    8.8516 C.2     1  UNL1        0.2808
     21 O          59.9324   89.7674    9.6755 O.2     1  UNL1       -0.2668
     22 H          59.6138   87.6144    6.9530 H       1  UNL1        0.1501
     23 C          60.9373   87.3892    9.3854 C.ar    1  UNL1        0.1984
     24 C          61.8035   86.4702    8.5761 C.ar    1  UNL1        0.0453
     25 C          62.4333   85.4823    9.5128 C.ar    1  UNL1        0.0409
     26 C          63.3794   84.3417    9.2810 C.ar    1  UNL1        0.0238
     27 C          63.8486   83.5096   10.4375 C.ar    1  UNL1        0.0991
     28 N          63.3717   83.8181   11.8258 N.ar    1  UNL1       -0.2391
     29 C          62.4255   84.9587   12.0576 C.ar    1  UNL1        0.1362
     30 C          61.9563   85.7908   10.9011 C.ar    1  UNL1        0.1646
     31 O          61.0317   86.9693   10.8224 O.2     1  UNL1       -0.4473
@<TRIPOS>BOND
     1    15    16    1
     2    16    17    1
     3    16    10    1
     4    10    11   ar
     5    11    12   ar
     6    12     7    1
     7     7     8    2
     8     7     9    2
     9     7     1    1
    10     1     2   ar
    11     2     3   ar
    12     3     4   ar
    13     4    18    1
    14    18    19    1
    15    19    20   am
    16    20    21    2
    17    20    23    1
    18    23    24   ar
    19    24    25   ar
    20    25    26   ar
    21    26    27   ar
    22    27    28   ar
    23    28    29   ar
    24    29    30   ar
    25    30    31   ar
    26     4     5   ar
    27     5     6   ar
    28    12    13   ar
    29    13    14   ar
    30    14    10   ar
    31     6     1   ar
    32    31    23   ar
    33    30    25   ar
    34    19    22    1
@<TRIPOS>MOLECULE
*****
 31 34 0 0 0
SMALL
GASTEIGER

@<TRIPOS>ATOM
      1 C          60.9329   87.6326    9.5034 C.ar    1  UNL1        0.1104
      2 C          60.3132   86.8891    8.3574 C.ar    1  UNL1        0.0185
      3 C          59.6257   87.6434    7.2581 C.ar    1  UNL1       -0.0013
      4 C          59.5578   89.1411    7.3049 C.ar    1  UNL1       -0.0025
      5 C          60.1774   89.8846    8.4509 C.ar    1  UNL1       -0.0013
      6 C          60.8650   89.1303    9.5502 C.ar    1  UNL1        0.0185
      7 S          61.6204   86.8783   10.6026 S.O2    1  UNL1        0.0305
      8 O          61.0503   85.5939   10.0779 O.2     1  UNL1       -0.1641
      9 O          62.1905   88.1626   11.1273 O.2     1  UNL1       -0.1641
     10 N          63.0963   84.3190   13.1200 N.ar    1  UNL1       -0.2500
     11 C          62.2757   84.6382   11.9056 C.ar    1  UNL1        0.1153
     12 C          62.3080   86.1240   11.7018 C.ar    1  UNL1        0.1497
     13 C          63.1485   86.7230   12.7902 C.ar    1  UNL1        0.1404
     14 N          63.6357   85.6075   13.6667 N.ar    1  UNL1       -0.1663
     15 C          62.3633   82.3662   14.6690 C.3     1  UNL1        0.0263
     16 C          63.3354   82.9515   13.6880 C.3     1  UNL1        0.1054
     17 C          64.5467   82.1691   13.2749 C.3     1  UNL1        0.0263
     18 C          58.8702   89.8954    6.2056 C.3     1  UNL1        0.1167
     19 N          59.6809   90.6199    5.1722 N.am    1  UNL1       -0.2944
     20 C          59.2118   91.9426    4.6429 C.2     1  UNL1        0.2808
     21 O          57.9320   92.5409    5.1469 O.2     1  UNL1       -0.2668
     22 H          60.5209   90.2272    4.8415 H       1  UNL1        0.1501
     23 C          60.0225   92.6671    3.6095 C.ar    1  UNL1        0.1984
     24 C          61.3110   92.1912    3.0069 C.ar    1  UNL1        0.0453
     25 C          61.7719   93.2247    2.0223 C.ar    1  UNL1        0.0409
     26 C          62.9758   93.2947    1.1303 C.ar    1  UNL1        0.0238
     27 C          63.1761   94.4795    0.2325 C.ar    1  UNL1        0.0991
     28 N          62.1725   95.5942    0.2266 N.ar    1  UNL1       -0.2391
     29 C          60.9686   95.5242    1.1186 C.ar    1  UNL1        0.1362
     30 C          60.7683   94.3394    2.0164 C.ar    1  UNL1        0.1646
     31 O          59.6871   93.9948    2.9974 O.2     1  UNL1       -0.4473
@<TRIPOS>BOND
     1    15    16    1
     2    16    17    1
     3    16    10    1
     4    10    11   ar
     5    11    12   ar
     6    12     7    1
     7     7     8    2
     8     7     9    2
     9     7     1    1
    10     1     2   ar
    11     2     3   ar
    12     3     4   ar
    13     4    18    1
    14    18    19    1
    15    19    20   am
    16    20    21    2
    17    20    23    1
    18    23    24   ar
    19    24    25   ar
    20    25    26   ar
    21    26    27   ar
    22    27    28   ar
    23    28    29   ar
    24    29    30   ar
    25    30    31   ar
    26     4     5   ar
    27     5     6   ar
    28    12    13   ar
    29    13    14   ar
    30    14    10   ar
    31     6     1   ar
    32    31    23   ar
    33    30    25   ar
    34    19    22    1
@<TRIPOS>MOLECULE
*****
 31 34 0 0 0
SMALL
GASTEIGER

@<TRIPOS>ATOM
      1 C          63.2166   84.0978   14.4763 C.ar    1  UNL1        0.1104
      2 C          63.9798   85.1234   13.6916 C.ar    1  UNL1        0.0185
      3 C          64.1721   86.5030   14.2481 C.ar    1  UNL1       -0.0013
      4 C          63.6013   86.8570   15.5893 C.ar    1  UNL1       -0.0025
      5 C          62.8382   85.8314   16.3741 C.ar    1  UNL1       -0.0013
      6 C          62.6458   84.4518   15.8175 C.ar    1  UNL1        0.0185
      7 S          63.0242   82.7182   13.9198 S.O2    1  UNL1        0.0305
      8 O          61.6440   82.6744   14.5055 O.2     1  UNL1       -0.1641
      9 O          64.4044   82.7620   13.3341 O.2     1  UNL1       -0.1641
     10 N          62.7061   79.4684   11.8215 N.ar    1  UNL1       -0.2500
     11 C          62.9942   80.9366   11.9273 C.ar    1  UNL1        0.1153
     12 C          62.8319   81.3386   13.3633 C.ar    1  UNL1        0.1497
     13 C          62.4434   80.1188   14.1450 C.ar    1  UNL1        0.1404
     14 N          62.3657   78.9630   13.1922 N.ar    1  UNL1       -0.1663
     15 C          62.6203   79.3179    9.2292 C.3     1  UNL1        0.0263
     16 C          62.7506   78.6494   10.5657 C.3     1  UNL1        0.1054
     17 C          62.9253   77.1618   10.6462 C.3     1  UNL1        0.0263
     18 C          63.7937   88.2366   16.1459 C.3     1  UNL1        0.1167
     19 N          64.4725   89.2900   15.3214 N.am    1  UNL1       -0.2944
     20 C          63.6793   90.1016   14.3407 C.2     1  UNL1        0.2808
     21 O          62.2072   89.8600   14.1844 O.2     1  UNL1       -0.2668
     22 H          65.4387   89.4485   15.4240 H       1  UNL1        0.1501
     23 C          64.3581   91.1549   13.5163 C.ar    1  UNL1        0.1984
     24 C          64.3883   91.2183   12.0179 C.ar    1  UNL1        0.0453
     25 C          65.1748   92.4324   11.6210 C.ar    1  UNL1        0.0409
     26 C          65.5347   93.0011   10.2805 C.ar    1  UNL1        0.0238
     27 C          66.3505   94.2567   10.1931 C.ar    1  UNL1        0.0991
     28 N          66.8065   94.9437   11.4462 N.ar    1  UNL1       -0.2391
     29 C          66.4465   94.3750   12.7867 C.ar    1  UNL1        0.1362
     30 C          65.6307   93.1193   12.8741 C.ar    1  UNL1        0.1646
     31 O          65.1260   92.3298   14.0454 O.2     1  UNL1       -0.4473
@<TRIPOS>BOND
     1    15    16    1
     2    16    17    1
     3    16    10    1
     4    10    11   ar
     5    11    12   ar
     6    12     7    1
     7     7     8    2
     8     7     9    2
     9     7     1    1
    10     1     2   ar
    11     2     3   ar
    12     3     4   ar
    13     4    18    1
    14    18    19    1
    15    19    20   am
    16    20    21    2
    17    20    23    1
    18    23    24   ar
    19    24    25   ar
    20    25    26   ar
    21    26    27   ar
    22    27    28   ar
    23    28    29   ar
    24    29    30   ar
    25    30    31   ar
    26     4     5   ar
    27     5     6   ar
    28    12    13   ar
    29    13    14   ar
    30    14    10   ar
    31     6     1   ar
    32    31    23   ar
    33    30    25   ar
    34    19    22    1
