@<TRIPOS>MOLECULE
*****
 32 36 0 0 0
SMALL
GASTEIGER

@<TRIPOS>ATOM
      1 N          62.9527   90.6944   12.3658 N.ar    1  UNL1       -0.3114
      2 C          63.5887   91.3180   11.1589 C.ar    1  UNL1        0.0771
      3 C          64.7654   92.1258   11.6204 C.ar    1  UNL1        0.0229
      4 C          64.8566   92.0014   13.1125 C.ar    1  UNL1        0.0668
      5 C          65.8150   92.5793   14.1111 C.ar    1  UNL1        0.1300
      6 N          66.9354   93.4640   13.6505 N.pl3   1  UNL1       -0.3425
      7 N          65.6531   92.2726   15.5705 N.ar    1  UNL1       -0.2094
      8 C          64.5327   91.3880   16.0311 C.ar    1  UNL1        0.2014
      9 N          63.5743   90.8100   15.0325 N.ar    1  UNL1       -0.2065
     10 C          63.7362   91.1167   13.5732 C.ar    1  UNL1        0.1483
     11 H          67.0416   93.6652   12.6926 H       1  UNL1        0.1437
     12 H          67.5644   93.8433   14.3059 H       1  UNL1        0.1437
     13 C          65.6888   92.9187   10.7438 C.ar    1  UNL1        0.0048
     14 C          66.9282   92.2813   10.1894 C.ar    1  UNL1        0.0034
     15 C          67.8517   93.0742    9.3128 C.ar    1  UNL1        0.0402
     16 C          67.5357   94.5047    8.9905 C.ar    1  UNL1        0.1764
     17 C          66.2962   95.1422    9.5448 C.ar    1  UNL1        0.1764
     18 C          65.3728   94.3493   10.4215 C.ar    1  UNL1        0.0402
     19 O          66.2467   96.5601    9.0578 O.3     1  UNL1       -0.4346
     20 C          67.4556   96.7989    8.2025 C.3     1  UNL1        0.4294
     21 O          68.2522   95.5286    8.1609 O.3     1  UNL1       -0.4346
     22 C          61.7450   89.8047   12.3654 C.3     1  UNL1        0.1075
     23 C          60.8131   86.0138    7.8089 C.2     1  UNL1        0.2492
     24 O          59.5009   86.0227    7.0823 O.2     1  UNL1       -0.2699
     25 N          61.0461   86.9615    8.9480 N.am    1  UNL1       -0.2761
     26 C          62.3583   86.9527    9.6747 C.3     1  UNL1        0.0938
     27 C          62.5913   87.9003   10.8138 C.3     1  UNL1        0.0235
     28 C          61.5121   88.8569   11.2262 C.3     1  UNL1        0.0261
     29 C          60.1999   88.8658   10.4996 C.3     1  UNL1        0.0235
     30 C          59.9668   87.9181    9.3605 C.3     1  UNL1        0.0938
     31 C          61.8827   84.4645    6.0185 C.2     1  UNL1        0.0048
     32 C          61.8924   85.0572    7.3964 C.2     1  UNL1        0.0579
@<TRIPOS>BOND
     1    31    32    2
     2    32    23    1
     3    23    24    2
     4    23    25   am
     5    25    26    1
     6    26    27    1
     7    27    28    1
     8    28    22    1
     9    22     1    1
    10     1     2   ar
    11     2     3   ar
    12     3    13    1
    13    13    14   ar
    14    14    15   ar
    15    15    16   ar
    16    16    17   ar
    17    17    18   ar
    18    17    19    1
    19    19    20    1
    20    20    21    1
    21     3     4   ar
    22     4     5   ar
    23     5     6    1
    24     5     7   ar
    25     7     8   ar
    26     8     9   ar
    27     9    10   ar
    28    28    29    1
    29    29    30    1
    30    30    25    1
    31    10     1   ar
    32    18    13   ar
    33    10     4   ar
    34    21    16    1
    35     6    11    1
    36     6    12    1
@<TRIPOS>MOLECULE
*****
 32 36 0 0 0
SMALL
GASTEIGER

@<TRIPOS>ATOM
      1 N          61.8084   89.2712   10.4585 N.ar    1  UNL1       -0.3114
      2 C          62.5121   88.0723   11.0222 C.ar    1  UNL1        0.0771
      3 C          62.0702   86.8678   10.2452 C.ar    1  UNL1        0.0229
      4 C          61.0934   87.3221    9.2014 C.ar    1  UNL1        0.0668
      5 C          60.3304   86.5751    8.1480 C.ar    1  UNL1        0.1300
      6 N          60.4921   85.0897    8.0161 N.pl3   1  UNL1       -0.3425
      7 N          59.4056   87.3136    7.2263 N.ar    1  UNL1       -0.2094
      8 C          59.2438   88.7990    7.3582 C.ar    1  UNL1        0.2014
      9 N          60.0069   89.5459    8.4116 N.ar    1  UNL1       -0.2065
     10 C          60.9316   88.8075    9.3332 C.ar    1  UNL1        0.1483
     11 H          61.0991   84.6050    8.6210 H       1  UNL1        0.1437
     12 H          59.9913   84.5994    7.3247 H       1  UNL1        0.1437
     13 C          62.5251   85.4565   10.4722 C.ar    1  UNL1        0.0048
     14 C          63.3407   84.7542    9.4276 C.ar    1  UNL1        0.0034
     15 C          63.7957   83.3430    9.6546 C.ar    1  UNL1        0.0402
     16 C          63.4350   82.6341   10.9263 C.ar    1  UNL1        0.1764
     17 C          62.6193   83.3364   11.9710 C.ar    1  UNL1        0.1764
     18 C          62.1643   84.7476   11.7440 C.ar    1  UNL1        0.0402
     19 O          62.4190   82.3893   13.1168 O.3     1  UNL1       -0.4346
     20 C          63.1108   81.1016   12.7802 C.3     1  UNL1        0.4294
     21 O          63.7387   81.2530   11.4264 O.3     1  UNL1       -0.4346
     22 C          61.9557   90.6854   10.9363 C.3     1  UNL1        0.1075
     23 C          66.8425   92.3201   14.0100 C.2     1  UNL1        0.2492
     24 O          67.9291   93.1004   13.3315 O.2     1  UNL1       -0.2699
     25 N          65.6208   91.9114   13.2415 N.am    1  UNL1       -0.2761
     26 C          64.5342   91.1311   13.9200 C.3     1  UNL1        0.0938
     27 C          63.3125   90.7224   13.1517 C.3     1  UNL1        0.0235
     28 C          63.1775   91.0941   11.7047 C.3     1  UNL1        0.0261
     29 C          64.2641   91.8744   11.0263 C.3     1  UNL1        0.0235
     30 C          65.4857   92.2831   11.7946 C.3     1  UNL1        0.0938
     31 C          68.1937   92.3675   16.2285 C.2     1  UNL1        0.0048
     32 C          66.9776   91.9484   15.4570 C.2     1  UNL1        0.0579
@<TRIPOS>BOND
     1    31    32    2
     2    32    23    1
     3    23    24    2
     4    23    25   am
     5    25    26    1
     6    26    27    1
     7    27    28    1
     8    28    22    1
     9    22     1    1
    10     1     2   ar
    11     2     3   ar
    12     3    13    1
    13    13    14   ar
    14    14    15   ar
    15    15    16   ar
    16    16    17   ar
    17    17    18   ar
    18    17    19    1
    19    19    20    1
    20    20    21    1
    21     3     4   ar
    22     4     5   ar
    23     5     6    1
    24     5     7   ar
    25     7     8   ar
    26     8     9   ar
    27     9    10   ar
    28    28    29    1
    29    29    30    1
    30    30    25    1
    31    10     1   ar
    32    18    13   ar
    33    10     4   ar
    34    21    16    1
    35     6    11    1
    36     6    12    1
@<TRIPOS>MOLECULE
*****
 32 36 0 0 0
SMALL
GASTEIGER

@<TRIPOS>ATOM
      1 N          63.2594   90.2899   12.1354 N.ar    1  UNL1       -0.3114
      2 C          63.9255   90.9600   10.9704 C.ar    1  UNL1        0.0771
      3 C          64.9323   91.9327   11.5089 C.ar    1  UNL1        0.0229
      4 C          64.8885   91.8638   13.0066 C.ar    1  UNL1        0.0668
      5 C          65.6566   92.5944   14.0679 C.ar    1  UNL1        0.1300
      6 N          66.6905   93.6098   13.6807 N.pl3   1  UNL1       -0.3425
      7 N          65.3906   92.3096   15.5164 N.ar    1  UNL1       -0.2094
      8 C          64.3567   91.2942   15.9036 C.ar    1  UNL1        0.2014
      9 N          63.5887   90.5636   14.8423 N.ar    1  UNL1       -0.2065
     10 C          63.8546   90.8484   13.3939 C.ar    1  UNL1        0.1483
     11 H          66.8651   93.7967   12.7300 H       1  UNL1        0.1437
     12 H          67.1946   94.0893   14.3772 H       1  UNL1        0.1437
     13 C          65.8261   92.8189   10.6928 C.ar    1  UNL1        0.0048
     14 C          67.1725   92.3254   10.2529 C.ar    1  UNL1        0.0034
     15 C          68.0662   93.2116    9.4368 C.ar    1  UNL1        0.0402
     16 C          67.6136   94.5913    9.0608 C.ar    1  UNL1        0.1764
     17 C          66.2672   95.0849    9.5007 C.ar    1  UNL1        0.1764
     18 C          65.3734   94.1987   10.3167 C.ar    1  UNL1        0.0402
     19 O          66.0933   96.4816    8.9821 O.3     1  UNL1       -0.4346
     20 C          67.3323   96.8513    8.2216 C.3     1  UNL1        0.4294
     21 O          68.2718   95.6830    8.2703 O.3     1  UNL1       -0.4346
     22 C          62.1865   89.2446   12.0559 C.3     1  UNL1        0.1075
     23 C          63.6118   83.4381   12.5586 C.2     1  UNL1        0.2492
     24 O          64.5470   82.9864   13.6408 O.2     1  UNL1       -0.2699
     25 N          63.2555   84.8897   12.4329 N.am    1  UNL1       -0.2761
     26 C          62.3202   85.3414   11.3507 C.3     1  UNL1        0.0938
     27 C          61.9639   86.7930   11.2250 C.3     1  UNL1        0.0235
     28 C          62.5428   87.7929   12.1816 C.3     1  UNL1        0.0261
     29 C          63.4781   87.3412   13.2638 C.3     1  UNL1        0.0235
     30 C          63.8344   85.8896   13.3895 C.3     1  UNL1        0.0938
     31 C          62.5871   81.0951   12.0997 C.2     1  UNL1        0.0048
     32 C          63.0329   82.4381   11.6020 C.2     1  UNL1        0.0579
@<TRIPOS>BOND
     1    31    32    2
     2    32    23    1
     3    23    24    2
     4    23    25   am
     5    25    26    1
     6    26    27    1
     7    27    28    1
     8    28    22    1
     9    22     1    1
    10     1     2   ar
    11     2     3   ar
    12     3    13    1
    13    13    14   ar
    14    14    15   ar
    15    15    16   ar
    16    16    17   ar
    17    17    18   ar
    18    17    19    1
    19    19    20    1
    20    20    21    1
    21     3     4   ar
    22     4     5   ar
    23     5     6    1
    24     5     7   ar
    25     7     8   ar
    26     8     9   ar
    27     9    10   ar
    28    28    29    1
    29    29    30    1
    30    30    25    1
    31    10     1   ar
    32    18    13   ar
    33    10     4   ar
    34    21    16    1
    35     6    11    1
    36     6    12    1
@<TRIPOS>MOLECULE
*****
 32 36 0 0 0
SMALL
GASTEIGER

@<TRIPOS>ATOM
      1 N          61.6081   88.8551   10.9258 N.ar    1  UNL1       -0.3114
      2 C          62.2892   87.6300   11.4598 C.ar    1  UNL1        0.0771
      3 C          62.0027   86.4946   10.5223 C.ar    1  UNL1        0.0229
      4 C          61.1446   87.0181    9.4089 C.ar    1  UNL1        0.0668
      5 C          60.5539   86.3548    8.2002 C.ar    1  UNL1        0.1300
      6 N          60.7977   84.8959    7.9508 N.pl3   1  UNL1       -0.3425
      7 N          59.7192   87.1504    7.2408 N.ar    1  UNL1       -0.2094
      8 C          59.4754   88.6093    7.4902 C.ar    1  UNL1        0.2014
      9 N          60.0662   89.2726    8.6989 N.ar    1  UNL1       -0.2065
     10 C          60.9008   88.4770    9.6582 C.ar    1  UNL1        0.1483
     11 H          61.3456   84.3738    8.5804 H       1  UNL1        0.1437
     12 H          60.4100   84.4606    7.1574 H       1  UNL1        0.1437
     13 C          62.4889   85.0835   10.6719 C.ar    1  UNL1        0.0048
     14 C          63.4504   84.5116    9.6728 C.ar    1  UNL1        0.0034
     15 C          63.9366   83.1005    9.8224 C.ar    1  UNL1        0.0402
     16 C          63.4614   82.2613   10.9712 C.ar    1  UNL1        0.1764
     17 C          62.4999   82.8332   11.9704 C.ar    1  UNL1        0.1764
     18 C          62.0136   84.2443   11.8208 C.ar    1  UNL1        0.0402
     19 O          62.2088   81.7743   12.9922 O.3     1  UNL1       -0.4346
     20 C          62.9903   80.5479   12.6244 C.3     1  UNL1        0.4294
     21 O          63.7645   80.8490   11.3754 O.3     1  UNL1       -0.4346
     22 C          61.6305   90.2190   11.5498 C.3     1  UNL1        0.1075
     23 C          66.7681   93.3055   11.8308 C.2     1  UNL1        0.2492
     24 O          67.5070   93.4151   13.1316 O.2     1  UNL1       -0.2699
     25 N          65.4837   92.5339   11.7606 N.am    1  UNL1       -0.2761
     26 C          64.7448   92.4243   10.4598 C.3     1  UNL1        0.0938
     27 C          63.4605   91.6527   10.3895 C.3     1  UNL1        0.0235
     28 C          62.9150   90.9907   11.6200 C.3     1  UNL1        0.0261
     29 C          63.6539   91.1003   12.9208 C.3     1  UNL1        0.0235
     30 C          64.9382   91.8718   12.9911 C.3     1  UNL1        0.0938
     31 C          68.1306   93.1762    9.6225 C.2     1  UNL1        0.0048
     32 C          67.3136   93.9676   10.6003 C.2     1  UNL1        0.0579
@<TRIPOS>BOND
     1    31    32    2
     2    32    23    1
     3    23    24    2
     4    23    25   am
     5    25    26    1
     6    26    27    1
     7    27    28    1
     8    28    22    1
     9    22     1    1
    10     1     2   ar
    11     2     3   ar
    12     3    13    1
    13    13    14   ar
    14    14    15   ar
    15    15    16   ar
    16    16    17   ar
    17    17    18   ar
    18    17    19    1
    19    19    20    1
    20    20    21    1
    21     3     4   ar
    22     4     5   ar
    23     5     6    1
    24     5     7   ar
    25     7     8   ar
    26     8     9   ar
    27     9    10   ar
    28    28    29    1
    29    29    30    1
    30    30    25    1
    31    10     1   ar
    32    18    13   ar
    33    10     4   ar
    34    21    16    1
    35     6    11    1
    36     6    12    1
@<TRIPOS>MOLECULE
*****
 32 36 0 0 0
SMALL
GASTEIGER

@<TRIPOS>ATOM
      1 N          63.1576   88.9642   12.6636 N.ar    1  UNL1       -0.3114
      2 C          63.5506   87.5361   12.9001 C.ar    1  UNL1        0.0771
      3 C          62.8007   86.6809   11.9223 C.ar    1  UNL1        0.0229
      4 C          61.9442   87.5805   11.0813 C.ar    1  UNL1        0.0668
      5 C          60.9919   87.2970    9.9577 C.ar    1  UNL1        0.1300
      6 N          60.7713   85.8858    9.4995 N.pl3   1  UNL1       -0.3425
      7 N          60.2602   88.4246    9.2921 N.ar    1  UNL1       -0.2094
      8 C          60.4808   89.8358    9.7503 C.ar    1  UNL1        0.2014
      9 N          61.4331   90.1194   10.8739 N.ar    1  UNL1       -0.2065
     10 C          62.1648   88.9917   11.5395 C.ar    1  UNL1        0.1483
     11 H          61.2515   85.1457    9.9363 H       1  UNL1        0.1437
     12 H          60.1462   85.6997    8.7620 H       1  UNL1        0.1437
     13 C          62.8913   85.1882   11.8058 C.ar    1  UNL1        0.0048
     14 C          63.4098   84.5645   10.5441 C.ar    1  UNL1        0.0034
     15 C          63.5004   83.0718   10.4275 C.ar    1  UNL1        0.0402
     16 C          63.0725   82.2027   11.5728 C.ar    1  UNL1        0.1764
     17 C          62.5540   82.8264   12.8346 C.ar    1  UNL1        0.1764
     18 C          62.4634   84.3192   12.9511 C.ar    1  UNL1        0.0402
     19 O          62.2086   81.7224   13.7894 O.3     1  UNL1       -0.4346
     20 C          62.5136   80.4163   13.1177 C.3     1  UNL1        0.4294
     21 O          63.0475   80.7132   11.7478 O.3     1  UNL1       -0.4346
     22 C          63.6679   90.1558   13.4185 C.3     1  UNL1        0.1075
     23 C          66.4373   94.6012   10.4912 C.2     1  UNL1        0.2492
     24 O          67.2917   95.5772   11.2445 O.2     1  UNL1       -0.2699
     25 N          65.7450   93.4898   11.2231 N.am    1  UNL1       -0.2761
     26 C          64.8905   92.5139   10.4698 C.3     1  UNL1        0.0938
     27 C          64.1982   91.4025   11.2016 C.3     1  UNL1        0.0235
     28 C          64.3602   91.2672   12.6866 C.3     1  UNL1        0.0261
     29 C          65.2147   92.2432   13.4399 C.3     1  UNL1        0.0235
     30 C          65.9071   93.3545   12.7081 C.3     1  UNL1        0.0938
     31 C          67.1992   95.6266    8.2289 C.2     1  UNL1        0.0048
     32 C          66.2753   94.7366    9.0061 C.2     1  UNL1        0.0579
@<TRIPOS>BOND
     1    31    32    2
     2    32    23    1
     3    23    24    2
     4    23    25   am
     5    25    26    1
     6    26    27    1
     7    27    28    1
     8    28    22    1
     9    22     1    1
    10     1     2   ar
    11     2     3   ar
    12     3    13    1
    13    13    14   ar
    14    14    15   ar
    15    15    16   ar
    16    16    17   ar
    17    17    18   ar
    18    17    19    1
    19    19    20    1
    20    20    21    1
    21     3     4   ar
    22     4     5   ar
    23     5     6    1
    24     5     7   ar
    25     7     8   ar
    26     8     9   ar
    27     9    10   ar
    28    28    29    1
    29    29    30    1
    30    30    25    1
    31    10     1   ar
    32    18    13   ar
    33    10     4   ar
    34    21    16    1
    35     6    11    1
    36     6    12    1
@<TRIPOS>MOLECULE
*****
 32 36 0 0 0
SMALL
GASTEIGER

@<TRIPOS>ATOM
      1 N          64.0810   89.1682   13.7179 N.ar    1  UNL1       -0.3114
      2 C          65.0429   90.3152   13.6212 C.ar    1  UNL1        0.0771
      3 C          64.6913   91.1132   12.4007 C.ar    1  UNL1        0.0229
      4 C          63.5122   90.4596   11.7432 C.ar    1  UNL1        0.0668
      5 C          62.7332   90.8036   10.5084 C.ar    1  UNL1        0.1300
      6 N          63.1104   92.0057    9.6944 N.pl3   1  UNL1       -0.3425
      7 N          61.5771   89.9456   10.0877 N.ar    1  UNL1       -0.2094
      8 C          61.1999   88.7435   10.9017 C.ar    1  UNL1        0.2014
      9 N          61.9789   88.3994   12.1365 N.ar    1  UNL1       -0.2065
     10 C          63.1350   89.2575   12.5573 C.ar    1  UNL1        0.1483
     11 H          63.8692   92.5689    9.9705 H       1  UNL1        0.1437
     12 H          62.5991   92.2316    8.8839 H       1  UNL1        0.1437
     13 C          65.3953   92.3482   11.9219 C.ar    1  UNL1        0.0048
     14 C          65.6793   93.4682   12.8783 C.ar    1  UNL1        0.0034
     15 C          66.3832   94.7031   12.3995 C.ar    1  UNL1        0.0402
     16 C          66.8032   94.8181   10.9641 C.ar    1  UNL1        0.1764
     17 C          66.5192   93.6982   10.0075 C.ar    1  UNL1        0.1764
     18 C          65.8152   92.4632   10.4864 C.ar    1  UNL1        0.0402
     19 O          67.0485   94.0933    8.6608 O.3     1  UNL1       -0.4346
     20 C          67.6597   95.4575    8.7850 C.3     1  UNL1        0.4294
     21 O          67.5080   95.9054   10.2085 O.3     1  UNL1       -0.4346
     22 C          64.0676   88.1166   14.7875 C.3     1  UNL1        0.1075
     23 C          63.5149   82.3305   13.2990 C.2     1  UNL1        0.2492
     24 O          63.8326   81.2638   14.3045 O.2     1  UNL1       -0.2699
     25 N          63.6530   83.7770   13.6711 N.am    1  UNL1       -0.2761
     26 C          63.3354   84.8438   12.6656 C.3     1  UNL1        0.0938
     27 C          63.4735   86.2903   13.0377 C.3     1  UNL1        0.0235
     28 C          63.9294   86.6700   14.4153 C.3     1  UNL1        0.0261
     29 C          64.2471   85.6033   15.4209 C.3     1  UNL1        0.0235
     30 C          64.1089   84.1568   15.0488 C.3     1  UNL1        0.0938
     31 C          63.9628   82.1715   10.7448 C.2     1  UNL1        0.0048
     32 C          63.0590   81.9507   11.9213 C.2     1  UNL1        0.0579
@<TRIPOS>BOND
     1    31    32    2
     2    32    23    1
     3    23    24    2
     4    23    25   am
     5    25    26    1
     6    26    27    1
     7    27    28    1
     8    28    22    1
     9    22     1    1
    10     1     2   ar
    11     2     3   ar
    12     3    13    1
    13    13    14   ar
    14    14    15   ar
    15    15    16   ar
    16    16    17   ar
    17    17    18   ar
    18    17    19    1
    19    19    20    1
    20    20    21    1
    21     3     4   ar
    22     4     5   ar
    23     5     6    1
    24     5     7   ar
    25     7     8   ar
    26     8     9   ar
    27     9    10   ar
    28    28    29    1
    29    29    30    1
    30    30    25    1
    31    10     1   ar
    32    18    13   ar
    33    10     4   ar
    34    21    16    1
    35     6    11    1
    36     6    12    1
@<TRIPOS>MOLECULE
*****
 32 36 0 0 0
SMALL
GASTEIGER

@<TRIPOS>ATOM
      1 N          63.5666   89.6518   12.7880 N.ar    1  UNL1       -0.3114
      2 C          63.9706   88.4166   13.5370 C.ar    1  UNL1        0.0771
      3 C          63.3245   87.2383   12.8705 C.ar    1  UNL1        0.0229
      4 C          62.5212   87.7453   11.7096 C.ar    1  UNL1        0.0668
      5 C          61.6728   87.0414   10.6924 C.ar    1  UNL1        0.1300
      6 N          61.5232   85.5498   10.7434 N.pl3   1  UNL1       -0.3425
      7 N          60.9740   87.8292    9.6243 N.ar    1  UNL1       -0.2094
      8 C          61.1236   89.3208    9.5733 C.ar    1  UNL1        0.2014
      9 N          61.9720   90.0247   10.5905 N.ar    1  UNL1       -0.2065
     10 C          62.6708   89.2369   11.6587 C.ar    1  UNL1        0.1483
     11 H          61.9818   85.0327   11.4445 H       1  UNL1        0.1437
     12 H          60.9663   85.0878   10.0758 H       1  UNL1        0.1437
     13 C          63.4583   85.8047   13.2910 C.ar    1  UNL1        0.0048
     14 C          64.3551   85.4396   14.4366 C.ar    1  UNL1        0.0034
     15 C          64.4888   84.0060   14.8571 C.ar    1  UNL1        0.0402
     16 C          63.7257   82.9374   14.1320 C.ar    1  UNL1        0.1764
     17 C          62.8289   83.3024   12.9864 C.ar    1  UNL1        0.1764
     18 C          62.6951   84.7360   12.5659 C.ar    1  UNL1        0.0402
     19 O          62.2062   82.0413   12.4652 O.3     1  UNL1       -0.4346
     20 C          62.7181   80.8968   13.2886 C.3     1  UNL1        0.4294
     21 O          63.6573   81.4506   14.3188 O.3     1  UNL1       -0.4346
     22 C          63.9849   91.0555   13.1116 C.3     1  UNL1        0.1075
     23 C          67.6895   94.0063    9.4280 C.2     1  UNL1        0.2492
     24 O          69.1733   93.9217    9.6309 O.2     1  UNL1       -0.2699
     25 N          66.7634   93.2686   10.3489 N.am    1  UNL1       -0.2761
     26 C          65.2796   93.3532   10.1460 C.3     1  UNL1        0.0938
     27 C          64.3534   92.6155   11.0669 C.3     1  UNL1        0.0235
     28 C          64.9111   91.7932   12.1906 C.3     1  UNL1        0.0261
     29 C          66.3949   91.7086   12.3935 C.3     1  UNL1        0.0235
     30 C          67.3211   92.4463   11.4727 C.3     1  UNL1        0.0938
     31 C          67.2700   96.3221    8.3275 C.2     1  UNL1        0.0048
     32 C          67.1320   94.8287    8.3042 C.2     1  UNL1        0.0579
@<TRIPOS>BOND
     1    31    32    2
     2    32    23    1
     3    23    24    2
     4    23    25   am
     5    25    26    1
     6    26    27    1
     7    27    28    1
     8    28    22    1
     9    22     1    1
    10     1     2   ar
    11     2     3   ar
    12     3    13    1
    13    13    14   ar
    14    14    15   ar
    15    15    16   ar
    16    16    17   ar
    17    17    18   ar
    18    17    19    1
    19    19    20    1
    20    20    21    1
    21     3     4   ar
    22     4     5   ar
    23     5     6    1
    24     5     7   ar
    25     7     8   ar
    26     8     9   ar
    27     9    10   ar
    28    28    29    1
    29    29    30    1
    30    30    25    1
    31    10     1   ar
    32    18    13   ar
    33    10     4   ar
    34    21    16    1
    35     6    11    1
    36     6    12    1
@<TRIPOS>MOLECULE
*****
 32 36 0 0 0
SMALL
GASTEIGER

@<TRIPOS>ATOM
      1 N          64.0927   87.7397   14.3015 N.ar    1  UNL1       -0.3114
      2 C          64.8629   89.0105   14.5062 C.ar    1  UNL1        0.0771
      3 C          64.5455   89.9334   13.3671 C.ar    1  UNL1        0.0229
      4 C          63.5792   89.2330   12.4584 C.ar    1  UNL1        0.0668
      5 C          62.9180   89.6546   11.1798 C.ar    1  UNL1        0.1300
      6 N          63.1979   91.0104   10.6023 N.pl3   1  UNL1       -0.3425
      7 N          61.9770   88.7204   10.4786 N.ar    1  UNL1       -0.2094
      8 C          61.6971   87.3646   11.0561 C.ar    1  UNL1        0.2014
      9 N          62.3583   86.9430   12.3348 N.ar    1  UNL1       -0.2065
     10 C          63.2994   87.8772   13.0359 C.ar    1  UNL1        0.1483
     11 H          63.8155   91.6236   11.0625 H       1  UNL1        0.1437
     12 H          62.7639   91.2871    9.7630 H       1  UNL1        0.1437
     13 C          65.0975   91.3143   13.1711 C.ar    1  UNL1        0.0048
     14 C          65.7441   92.0334   14.3177 C.ar    1  UNL1        0.0034
     15 C          66.2961   93.4143   14.1217 C.ar    1  UNL1        0.0402
     16 C          66.2015   94.0761   12.7789 C.ar    1  UNL1        0.1764
     17 C          65.5549   93.3571   11.6322 C.ar    1  UNL1        0.1764
     18 C          65.0029   91.9762   11.8283 C.ar    1  UNL1        0.0402
     19 O          65.6063   94.2566   10.4330 O.3     1  UNL1       -0.4346
     20 C          66.2846   95.5315   10.8385 C.3     1  UNL1        0.4294
     21 O          66.6525   95.4200   12.2883 O.3     1  UNL1       -0.4346
     22 C          64.1124   86.5417   15.2040 C.3     1  UNL1        0.1075
     23 C          62.5702   81.1511   13.0679 C.2     1  UNL1        0.2492
     24 O          63.0994   80.6902   11.7422 O.2     1  UNL1       -0.2699
     25 N          62.9558   82.4987   13.6019 N.am    1  UNL1       -0.2761
     26 C          62.4265   82.9596   14.9276 C.3     1  UNL1        0.0938
     27 C          62.8120   84.3072   15.4617 C.3     1  UNL1        0.0235
     28 C          63.7268   85.1940   14.6699 C.3     1  UNL1        0.0261
     29 C          64.2560   84.7331   13.3442 C.3     1  UNL1        0.0235
     30 C          63.8705   83.3855   12.8102 C.3     1  UNL1        0.0938
     31 C          60.2198   80.6519   14.0560 C.2     1  UNL1        0.0048
     32 C          61.6554   80.2642   13.8596 C.2     1  UNL1        0.0579
@<TRIPOS>BOND
     1    31    32    2
     2    32    23    1
     3    23    24    2
     4    23    25   am
     5    25    26    1
     6    26    27    1
     7    27    28    1
     8    28    22    1
     9    22     1    1
    10     1     2   ar
    11     2     3   ar
    12     3    13    1
    13    13    14   ar
    14    14    15   ar
    15    15    16   ar
    16    16    17   ar
    17    17    18   ar
    18    17    19    1
    19    19    20    1
    20    20    21    1
    21     3     4   ar
    22     4     5   ar
    23     5     6    1
    24     5     7   ar
    25     7     8   ar
    26     8     9   ar
    27     9    10   ar
    28    28    29    1
    29    29    30    1
    30    30    25    1
    31    10     1   ar
    32    18    13   ar
    33    10     4   ar
    34    21    16    1
    35     6    11    1
    36     6    12    1
