@<TRIPOS>MOLECULE
*****
 33 35 0 0 0
SMALL
GASTEIGER

@<TRIPOS>ATOM
      1 S          63.9718   88.4797   13.7453 S.O2    1  UNL1        0.0633
      2 O          62.8776   88.6506   12.7337 O.2     1  UNL1       -0.1528
      3 O          65.0660   88.3089   14.7569 O.2     1  UNL1       -0.1528
      4 C          63.3915   87.7140   16.5873 C.3     1  UNL1        0.0206
      5 C          63.1734   86.7218   15.4837 C.3     1  UNL1        0.0956
      6 C          62.6651   85.3467   15.8012 C.3     1  UNL1        0.0900
      7 N          62.4470   84.3545   14.6976 N.3     1  UNL1       -0.2698
      8 C          62.7371   84.7373   13.2766 C.3     1  UNL1        0.0915
      9 C          63.2454   86.1124   12.9592 C.3     1  UNL1        0.1131
     10 N          63.4635   87.1046   14.0628 N.3     1  UNL1       -0.1541
     11 C          61.9387   82.9793   15.0151 C.3     1  UNL1        0.0807
     12 C          62.4086   81.8023   14.2128 C.3     1  UNL1        0.0833
     13 C          62.3714   80.5123   13.4483 C.3     1  UNL1        0.0105
     14 C          61.1116   81.0682   14.0430 C.3     1  UNL1        0.0105
     15 C          63.8689   82.1276   14.1038 C.2     1  UNL1        0.2198
     16 N          64.6368   82.5468   15.3222 N.am    1  UNL1       -0.3288
     17 O          64.5612   82.0337   12.7764 O.2     1  UNL1       -0.2753
     18 H          64.1824   82.6084   16.1934 H       1  UNL1        0.1449
     19 H          65.5952   82.7603   15.2507 H       1  UNL1        0.1449
     20 C          64.4800   89.8548   13.4278 C.ar    1  UNL1        0.1222
     21 C          65.5254   90.4875   14.2978 C.ar    1  UNL1        0.0197
     22 C          66.0337   91.8626   13.9802 C.ar    1  UNL1       -0.0004
     23 C          65.4965   92.6050   12.7927 C.ar    1  UNL1        0.0099
     24 C          64.4511   91.9724   11.9227 C.ar    1  UNL1       -0.0004
     25 C          63.9429   90.5973   12.2402 C.ar    1  UNL1        0.0197
     26 C          66.0047   93.9801   12.4752 C.3     1  UNL1        0.1945
     27 C          66.5130   95.3552   12.1576 C.3     1  UNL1        0.0428
     28 O          65.8489   94.3701   13.9152 O.3     1  UNL1       -0.3751
     29 H          65.5055   93.6159   14.4191 H       1  UNL1        0.2110
     30 C          66.1605   93.5900   11.0353 C.3     1  UNL1        0.4230
     31 F          66.3164   93.1999    9.5952 F       1  UNL1       -0.1673
     32 F          67.1760   92.4864   11.0659 F       1  UNL1       -0.1673
     33 F          65.1529   94.6302   10.6444 F       1  UNL1       -0.1673
@<TRIPOS>BOND
     1     5     4    1
     2     5     6    1
     3     6     7    1
     4     7    11    1
     5    11    12    1
     6    12    15    1
     7    15    16   am
     8    15    17    2
     9    12    13    1
    10    13    14    1
    11     7     8    1
    12     8     9    1
    13     9    10    1
    14    10     1    1
    15     1     2    2
    16     1     3    2
    17     1    20    1
    18    20    21   ar
    19    21    22   ar
    20    22    23   ar
    21    23    26    1
    22    26    27    1
    23    26    28    1
    24    26    30    1
    25    30    31    1
    26    30    32    1
    27    30    33    1
    28    23    24   ar
    29    24    25   ar
    30    10     5    1
    31    25    20   ar
    32    14    12    1
    33    16    18    1
    34    16    19    1
    35    28    29    1
@<TRIPOS>MOLECULE
*****
 33 35 0 0 0
SMALL
GASTEIGER

@<TRIPOS>ATOM
      1 S          61.2065   86.8365    9.1800 S.O2    1  UNL1        0.0633
      2 O          62.1034   87.9390    9.6596 O.2     1  UNL1       -0.1528
      3 O          60.3097   85.7340    8.7003 O.2     1  UNL1       -0.1528
      4 C          63.1488   84.8981    7.9673 C.3     1  UNL1        0.0206
      5 C          62.9089   84.8922    9.4480 C.3     1  UNL1        0.0956
      6 C          63.6401   83.9171   10.3223 C.3     1  UNL1        0.0900
      7 N          63.4002   83.9112   11.8030 N.3     1  UNL1       -0.2698
      8 C          62.4292   84.8803   12.4093 C.3     1  UNL1        0.0915
      9 C          61.6980   85.8554   11.5350 C.3     1  UNL1        0.1131
     10 N          61.9378   85.8613   10.0543 N.3     1  UNL1       -0.1541
     11 C          64.1315   82.9360   12.6773 C.3     1  UNL1        0.0807
     12 C          63.3666   82.0492   13.6146 C.3     1  UNL1        0.0833
     13 C          62.6007   80.8645   14.1244 C.3     1  UNL1        0.0105
     14 C          63.0978   80.8837   12.7094 C.3     1  UNL1        0.0105
     15 C          63.3698   82.9066   14.8454 C.2     1  UNL1        0.2198
     16 N          64.6703   83.3179   15.4695 N.am    1  UNL1       -0.3288
     17 O          62.0725   83.3527   15.4520 O.2     1  UNL1       -0.2753
     18 H          65.5217   83.0252   15.0713 H       1  UNL1        0.1449
     19 H          64.6723   83.8807   16.2773 H       1  UNL1        0.1449
     20 C          60.4753   87.8116    8.3057 C.ar    1  UNL1        0.1222
     21 C          59.5981   87.3126    7.1960 C.ar    1  UNL1        0.0197
     22 C          58.8669   88.2878    6.3217 C.ar    1  UNL1       -0.0004
     23 C          59.0129   89.7620    6.5571 C.ar    1  UNL1        0.0099
     24 C          59.8901   90.2610    7.6669 C.ar    1  UNL1       -0.0004
     25 C          60.6213   89.2859    8.5411 C.ar    1  UNL1        0.0197
     26 C          58.2817   90.7371    5.6829 C.3     1  UNL1        0.1945
     27 C          57.5505   91.7124    4.8085 C.3     1  UNL1        0.0428
     28 O          56.9725   90.2203    6.2014 O.3     1  UNL1       -0.3751
     29 H          57.1361   89.5144    6.8462 H       1  UNL1        0.2110
     30 C          59.5909   91.2539    5.1644 C.3     1  UNL1        0.4230
     31 F          60.9002   91.7707    4.6458 F       1  UNL1       -0.1673
     32 F          60.4489   90.0281    5.0586 F       1  UNL1       -0.1673
     33 F          59.0332   92.6463    5.1440 F       1  UNL1       -0.1673
@<TRIPOS>BOND
     1     5     4    1
     2     5     6    1
     3     6     7    1
     4     7    11    1
     5    11    12    1
     6    12    15    1
     7    15    16   am
     8    15    17    2
     9    12    13    1
    10    13    14    1
    11     7     8    1
    12     8     9    1
    13     9    10    1
    14    10     1    1
    15     1     2    2
    16     1     3    2
    17     1    20    1
    18    20    21   ar
    19    21    22   ar
    20    22    23   ar
    21    23    26    1
    22    26    27    1
    23    26    28    1
    24    26    30    1
    25    30    31    1
    26    30    32    1
    27    30    33    1
    28    23    24   ar
    29    24    25   ar
    30    10     5    1
    31    25    20   ar
    32    14    12    1
    33    16    18    1
    34    16    19    1
    35    28    29    1
@<TRIPOS>MOLECULE
*****
 33 35 0 0 0
SMALL
GASTEIGER

@<TRIPOS>ATOM
      1 S          63.6955   87.0352   14.2621 S.O2    1  UNL1        0.0633
      2 O          64.2469   86.7217   15.6213 O.2     1  UNL1       -0.1528
      3 O          63.1440   87.3487   12.9028 O.2     1  UNL1       -0.1528
      4 C          63.0815   88.4147   16.8544 C.3     1  UNL1        0.0206
      5 C          63.7515   89.1685   15.7440 C.3     1  UNL1        0.0956
      6 C          64.1145   90.6120   15.9297 C.3     1  UNL1        0.0900
      7 N          64.7845   91.3657   14.8193 N.3     1  UNL1       -0.2698
      8 C          65.0914   90.6760   13.5231 C.3     1  UNL1        0.0915
      9 C          64.7284   89.2325   13.3374 C.3     1  UNL1        0.1131
     10 N          64.0585   88.4788   14.4478 N.3     1  UNL1       -0.1541
     11 C          65.1474   92.8093   15.0050 C.3     1  UNL1        0.0807
     12 C          66.5868   93.2306   14.9749 C.3     1  UNL1        0.0833
     13 C          67.9957   93.4682   15.4314 C.3     1  UNL1        0.0105
     14 C          66.9993   92.8482   16.3654 C.3     1  UNL1        0.0105
     15 C          66.6741   93.7593   13.5739 C.2     1  UNL1        0.2198
     16 N          67.2557   92.9067   12.4854 N.am    1  UNL1       -0.3288
     17 O          66.1799   95.1406   13.2613 O.2     1  UNL1       -0.2753
     18 H          67.5801   92.0000   12.6906 H       1  UNL1        0.1449
     19 H          67.3131   93.2537   11.5659 H       1  UNL1        0.1449
     20 C          63.3325   85.5917   14.0763 C.ar    1  UNL1        0.1222
     21 C          63.2340   84.6840   15.2664 C.ar    1  UNL1        0.0197
     22 C          62.8710   83.2404   15.0807 C.ar    1  UNL1       -0.0004
     23 C          62.6066   82.7046   13.7048 C.ar    1  UNL1        0.0099
     24 C          62.7051   83.6123   12.5147 C.ar    1  UNL1       -0.0004
     25 C          63.0681   85.0558   12.7004 C.ar    1  UNL1        0.0197
     26 C          62.2436   81.2611   13.5191 C.3     1  UNL1        0.1945
     27 C          61.8807   79.8176   13.3333 C.3     1  UNL1        0.0428
     28 O          61.3115   81.3447   14.6913 O.3     1  UNL1       -0.3751
     29 H          61.3318   82.2428   15.0572 H       1  UNL1        0.2110
     30 C          63.1758   81.1776   12.3470 C.3     1  UNL1        0.4230
     31 F          64.1080   81.0940   11.1747 F       1  UNL1       -0.1673
     32 F          62.2638   81.1913   11.1561 F       1  UNL1       -0.1673
     33 F          64.3484   81.1425   13.2819 F       1  UNL1       -0.1673
@<TRIPOS>BOND
     1     5     4    1
     2     5     6    1
     3     6     7    1
     4     7    11    1
     5    11    12    1
     6    12    15    1
     7    15    16   am
     8    15    17    2
     9    12    13    1
    10    13    14    1
    11     7     8    1
    12     8     9    1
    13     9    10    1
    14    10     1    1
    15     1     2    2
    16     1     3    2
    17     1    20    1
    18    20    21   ar
    19    21    22   ar
    20    22    23   ar
    21    23    26    1
    22    26    27    1
    23    26    28    1
    24    26    30    1
    25    30    31    1
    26    30    32    1
    27    30    33    1
    28    23    24   ar
    29    24    25   ar
    30    10     5    1
    31    25    20   ar
    32    14    12    1
    33    16    18    1
    34    16    19    1
    35    28    29    1
@<TRIPOS>MOLECULE
*****
 33 35 0 0 0
SMALL
GASTEIGER

@<TRIPOS>ATOM
      1 S          63.4885   86.7902   13.4915 S.O2    1  UNL1        0.0633
      2 O          63.0843   86.8597   12.0486 O.2     1  UNL1       -0.1528
      3 O          63.8926   86.7207   14.9343 O.2     1  UNL1       -0.1528
      4 C          62.4221   88.5561   11.3133 C.3     1  UNL1        0.0206
      5 C          63.3197   89.1279   12.3703 C.3     1  UNL1        0.0956
      6 C          63.6841   90.5826   12.3383 C.3     1  UNL1        0.0900
      7 N          64.5817   91.1543   13.3953 N.3     1  UNL1       -0.2698
      8 C          65.1149   90.2714   14.4844 C.3     1  UNL1        0.0915
      9 C          64.7505   88.8168   14.5164 C.3     1  UNL1        0.1131
     10 N          63.8529   88.2450   13.4594 N.3     1  UNL1       -0.1541
     11 C          64.9461   92.6091   13.3633 C.3     1  UNL1        0.0807
     12 C          66.1393   93.0662   12.5776 C.3     1  UNL1        0.0833
     13 C          66.9570   93.5999   11.4389 C.3     1  UNL1        0.0105
     14 C          65.4727   93.4454   11.2885 C.3     1  UNL1        0.0105
     15 C          67.2204   92.8458   13.5938 C.2     1  UNL1        0.2198
     16 N          68.3244   91.8695   13.3146 N.am    1  UNL1       -0.3288
     17 O          67.1974   93.6018   14.8892 O.2     1  UNL1       -0.2753
     18 H          68.3395   91.3734   12.4644 H       1  UNL1        0.1449
     19 H          69.0339   91.7249   13.9816 H       1  UNL1        0.1449
     20 C          63.1241   85.3355   13.5235 C.ar    1  UNL1        0.1222
     21 C          62.8957   84.5912   12.2414 C.ar    1  UNL1        0.0197
     22 C          62.5313   83.1364   12.2734 C.ar    1  UNL1       -0.0004
     23 C          62.3953   82.4261   13.5875 C.ar    1  UNL1        0.0099
     24 C          62.6237   83.1705   14.8696 C.ar    1  UNL1       -0.0004
     25 C          62.9881   84.6251   14.8376 C.ar    1  UNL1        0.0197
     26 C          62.0309   80.9714   13.6196 C.3     1  UNL1        0.1945
     27 C          61.6665   79.5166   13.6515 C.3     1  UNL1        0.0428
     28 O          61.0371   81.2443   14.7095 O.3     1  UNL1       -0.3751
     29 H          61.0451   82.1901   14.9249 H       1  UNL1        0.2110
     30 C          63.0246   80.6985   12.5297 C.3     1  UNL1        0.4230
     31 F          64.0184   80.4256   11.4397 F       1  UNL1       -0.1673
     32 F          62.1831   80.5725   11.2943 F       1  UNL1       -0.1673
     33 F          64.1398   80.7603   13.5310 F       1  UNL1       -0.1673
@<TRIPOS>BOND
     1     5     4    1
     2     5     6    1
     3     6     7    1
     4     7    11    1
     5    11    12    1
     6    12    15    1
     7    15    16   am
     8    15    17    2
     9    12    13    1
    10    13    14    1
    11     7     8    1
    12     8     9    1
    13     9    10    1
    14    10     1    1
    15     1     2    2
    16     1     3    2
    17     1    20    1
    18    20    21   ar
    19    21    22   ar
    20    22    23   ar
    21    23    26    1
    22    26    27    1
    23    26    28    1
    24    26    30    1
    25    30    31    1
    26    30    32    1
    27    30    33    1
    28    23    24   ar
    29    24    25   ar
    30    10     5    1
    31    25    20   ar
    32    14    12    1
    33    16    18    1
    34    16    19    1
    35    28    29    1
@<TRIPOS>MOLECULE
*****
 33 35 0 0 0
SMALL
GASTEIGER

@<TRIPOS>ATOM
      1 S          63.5567   86.8019   13.6463 S.O2    1  UNL1        0.0633
      2 O          63.9539   86.6688   15.0866 O.2     1  UNL1       -0.1528
      3 O          63.1596   86.9351   12.2060 O.2     1  UNL1       -0.1528
      4 C          62.5513   88.6625   11.5185 C.3     1  UNL1        0.0206
      5 C          63.4393   89.1816   12.6103 C.3     1  UNL1        0.0956
      6 C          63.8246   90.6310   12.6382 C.3     1  UNL1        0.0900
      7 N          64.7126   91.1501   13.7299 N.3     1  UNL1       -0.2698
      8 C          65.2154   90.2199   14.7938 C.3     1  UNL1        0.0915
      9 C          64.8301   88.7705   14.7659 C.3     1  UNL1        0.1131
     10 N          63.9420   88.2514   13.6741 N.3     1  UNL1       -0.1541
     11 C          65.0979   92.5996   13.7577 C.3     1  UNL1        0.0807
     12 C          66.5027   92.9957   14.1035 C.3     1  UNL1        0.0833
     13 C          67.6884   93.4143   14.9214 C.3     1  UNL1        0.0105
     14 C          66.3596   93.1982   15.5829 C.3     1  UNL1        0.0105
     15 C          67.1338   92.9307   12.7443 C.2     1  UNL1        0.2198
     16 N          66.6742   93.8584   11.6589 N.am    1  UNL1       -0.3288
     17 O          68.2244   91.9379   12.4704 O.2     1  UNL1       -0.2753
     18 H          65.9584   94.5100   11.8386 H       1  UNL1        0.1449
     19 H          67.0884   93.8158   10.7668 H       1  UNL1        0.1449
     20 C          63.1715   85.3526   13.6185 C.ar    1  UNL1        0.1222
     21 C          63.0071   84.5954   14.9030 C.ar    1  UNL1        0.0197
     22 C          62.6218   83.1460   14.8751 C.ar    1  UNL1       -0.0004
     23 C          62.4009   82.4537   13.5629 C.ar    1  UNL1        0.0099
     24 C          62.5653   83.2108   12.2785 C.ar    1  UNL1       -0.0004
     25 C          62.9506   84.6602   12.3063 C.ar    1  UNL1        0.0197
     26 C          62.0157   81.0043   13.5351 C.3     1  UNL1        0.1945
     27 C          61.6304   79.5549   13.5073 C.3     1  UNL1        0.0428
     28 O          61.0096   81.2510   14.6200 O.3     1  UNL1       -0.3751
     29 H          61.0276   82.1878   14.8707 H       1  UNL1        0.2110
     30 C          63.0218   80.7577   12.4503 C.3     1  UNL1        0.4230
     31 F          64.0279   80.5111   11.3654 F       1  UNL1       -0.1673
     32 F          62.1959   80.6770   11.2008 F       1  UNL1       -0.1673
     33 F          64.1240   80.7794   13.4675 F       1  UNL1       -0.1673
@<TRIPOS>BOND
     1     5     4    1
     2     5     6    1
     3     6     7    1
     4     7    11    1
     5    11    12    1
     6    12    15    1
     7    15    16   am
     8    15    17    2
     9    12    13    1
    10    13    14    1
    11     7     8    1
    12     8     9    1
    13     9    10    1
    14    10     1    1
    15     1     2    2
    16     1     3    2
    17     1    20    1
    18    20    21   ar
    19    21    22   ar
    20    22    23   ar
    21    23    26    1
    22    26    27    1
    23    26    28    1
    24    26    30    1
    25    30    31    1
    26    30    32    1
    27    30    33    1
    28    23    24   ar
    29    24    25   ar
    30    10     5    1
    31    25    20   ar
    32    14    12    1
    33    16    18    1
    34    16    19    1
    35    28    29    1
@<TRIPOS>MOLECULE
*****
 33 35 0 0 0
SMALL
GASTEIGER

@<TRIPOS>ATOM
      1 S          63.2057   90.1394   12.0516 S.O2    1  UNL1        0.0633
      2 O          62.6642   91.4056   11.4571 O.2     1  UNL1       -0.1528
      3 O          63.7471   88.8732   12.6460 O.2     1  UNL1       -0.1528
      4 C          65.0683   92.1992   10.9167 C.3     1  UNL1        0.0206
      5 C          65.0131   91.9733   12.3986 C.3     1  UNL1        0.0956
      6 C          65.8891   92.7772   13.3130 C.3     1  UNL1        0.0900
      7 N          65.8338   92.5513   14.7949 N.3     1  UNL1       -0.2698
      8 C          64.9025   91.5214   15.3623 C.3     1  UNL1        0.0915
      9 C          64.0265   90.7175   14.4479 C.3     1  UNL1        0.1131
     10 N          64.0818   90.9434   12.9660 N.3     1  UNL1       -0.1541
     11 C          66.7099   93.3553   15.7093 C.3     1  UNL1        0.0807
     12 C          68.2005   93.3152   15.5467 C.3     1  UNL1        0.0833
     13 C          69.6419   93.7146   15.6597 C.3     1  UNL1        0.0105
     14 C          68.5767   94.5664   16.2836 C.3     1  UNL1        0.0105
     15 C          68.3421   92.0501   14.7533 C.2     1  UNL1        0.2198
     16 N          67.8804   90.7459   15.3327 N.am    1  UNL1       -0.3288
     17 O          68.9455   92.0893   13.3805 O.2     1  UNL1       -0.2753
     18 H          67.4844   90.7202   16.2337 H       1  UNL1        0.1449
     19 H          67.9733   89.9155   14.8120 H       1  UNL1        0.1449
     20 C          62.3296   89.3355   11.1371 C.ar    1  UNL1        0.1222
     21 C          62.1594   87.8627   11.3648 C.ar    1  UNL1        0.0197
     22 C          61.2832   87.0588   10.4503 C.ar    1  UNL1       -0.0004
     23 C          60.5775   87.7277    9.3082 C.ar    1  UNL1        0.0099
     24 C          60.7477   89.2005    9.0806 C.ar    1  UNL1       -0.0004
     25 C          61.6238   90.0044    9.9950 C.ar    1  UNL1        0.0197
     26 C          59.7014   86.9238    8.3938 C.3     1  UNL1        0.1945
     27 C          58.8253   86.1198    7.4793 C.3     1  UNL1        0.0428
     28 O          58.5015   87.6851    8.8740 O.3     1  UNL1       -0.3751
     29 H          58.7770   88.3394    9.5350 H       1  UNL1        0.2110
     30 C          60.9013   86.1624    7.9136 C.3     1  UNL1        0.4230
     31 F          62.1012   85.4011    7.4334 F       1  UNL1       -0.1673
     32 F          62.0647   86.9842    8.3838 F       1  UNL1       -0.1673
     33 F          60.0015   85.1255    7.3092 F       1  UNL1       -0.1673
@<TRIPOS>BOND
     1     5     4    1
     2     5     6    1
     3     6     7    1
     4     7    11    1
     5    11    12    1
     6    12    15    1
     7    15    16   am
     8    15    17    2
     9    12    13    1
    10    13    14    1
    11     7     8    1
    12     8     9    1
    13     9    10    1
    14    10     1    1
    15     1     2    2
    16     1     3    2
    17     1    20    1
    18    20    21   ar
    19    21    22   ar
    20    22    23   ar
    21    23    26    1
    22    26    27    1
    23    26    28    1
    24    26    30    1
    25    30    31    1
    26    30    32    1
    27    30    33    1
    28    23    24   ar
    29    24    25   ar
    30    10     5    1
    31    25    20   ar
    32    14    12    1
    33    16    18    1
    34    16    19    1
    35    28    29    1
@<TRIPOS>MOLECULE
*****
 33 35 0 0 0
SMALL
GASTEIGER

@<TRIPOS>ATOM
      1 S          63.2995   90.2007   12.0406 S.O2    1  UNL1        0.0633
      2 O          62.7856   91.4614   11.4108 O.2     1  UNL1       -0.1528
      3 O          63.8133   88.9401   12.6704 O.2     1  UNL1       -0.1528
      4 C          63.2120   89.7879   15.0108 C.3     1  UNL1        0.0206
      5 C          64.1447   90.8045   14.4220 C.3     1  UNL1        0.0956
      6 C          65.0336   91.6147   15.3183 C.3     1  UNL1        0.0900
      7 N          65.9663   92.6313   14.7295 N.3     1  UNL1       -0.2698
      8 C          66.0101   92.8377   13.2445 C.3     1  UNL1        0.0915
      9 C          65.1211   92.0275   12.3482 C.3     1  UNL1        0.1131
     10 N          64.1884   91.0109   12.9370 N.3     1  UNL1       -0.1541
     11 C          66.8553   93.4415   15.6259 C.3     1  UNL1        0.0807
     12 C          68.3460   93.3141   15.5177 C.3     1  UNL1        0.0833
     13 C          69.8025   93.6459   15.6533 C.3     1  UNL1        0.0105
     14 C          68.7655   94.5918   16.1821 C.3     1  UNL1        0.0105
     15 C          68.4442   91.9921   14.8157 C.2     1  UNL1        0.2198
     16 N          69.0743   91.9094   13.4571 N.am    1  UNL1       -0.3288
     17 O          67.9123   90.7529   15.4725 O.2     1  UNL1       -0.2753
     18 H          69.4234   92.7228   13.0260 H       1  UNL1        0.1449
     19 H          69.1388   91.0418   12.9963 H       1  UNL1        0.1449
     20 C          62.4105   89.3906   11.1443 C.ar    1  UNL1        0.1222
     21 C          61.6949   90.0501   10.0028 C.ar    1  UNL1        0.0197
     22 C          60.8060   89.2399    9.1064 C.ar    1  UNL1       -0.0004
     23 C          60.6326   87.7703    9.3516 C.ar    1  UNL1        0.0099
     24 C          61.3482   87.1108   10.4931 C.ar    1  UNL1       -0.0004
     25 C          62.2371   87.9209   11.3894 C.ar    1  UNL1        0.0197
     26 C          59.7437   86.9602    8.4552 C.3     1  UNL1        0.1945
     27 C          58.8547   86.1501    7.5588 C.3     1  UNL1        0.0428
     28 O          58.5522   87.7323    8.9391 O.3     1  UNL1       -0.3751
     29 H          58.8373   88.3927    9.5899 H       1  UNL1        0.2110
     30 C          60.9352   86.1881    7.9714 C.3     1  UNL1        0.4230
     31 F          62.1267   85.4160    7.4875 F       1  UNL1       -0.1673
     32 F          62.1072   87.0033    8.4315 F       1  UNL1       -0.1673
     33 F          60.0244   85.1554    7.3764 F       1  UNL1       -0.1673
@<TRIPOS>BOND
     1     5     4    1
     2     5     6    1
     3     6     7    1
     4     7    11    1
     5    11    12    1
     6    12    15    1
     7    15    16   am
     8    15    17    2
     9    12    13    1
    10    13    14    1
    11     7     8    1
    12     8     9    1
    13     9    10    1
    14    10     1    1
    15     1     2    2
    16     1     3    2
    17     1    20    1
    18    20    21   ar
    19    21    22   ar
    20    22    23   ar
    21    23    26    1
    22    26    27    1
    23    26    28    1
    24    26    30    1
    25    30    31    1
    26    30    32    1
    27    30    33    1
    28    23    24   ar
    29    24    25   ar
    30    10     5    1
    31    25    20   ar
    32    14    12    1
    33    16    18    1
    34    16    19    1
    35    28    29    1
@<TRIPOS>MOLECULE
*****
 33 35 0 0 0
SMALL
GASTEIGER

@<TRIPOS>ATOM
      1 S          63.7532   90.7765   12.4046 S.O2    1  UNL1        0.0633
      2 O          64.3772   91.2073   11.1104 O.2     1  UNL1       -0.1528
      3 O          63.1293   90.3457   13.6989 O.2     1  UNL1       -0.1528
      4 C          63.5027   87.8014   12.6978 C.3     1  UNL1        0.0206
      5 C          62.5673   88.5472   11.7930 C.3     1  UNL1        0.0956
      6 C          61.5067   87.8056   11.0347 C.3     1  UNL1        0.0900
      7 N          60.5714   88.5514   10.1299 N.3     1  UNL1       -0.2698
      8 C          60.6966   90.0390    9.9833 C.3     1  UNL1        0.0915
      9 C          61.7572   90.7806   10.7415 C.3     1  UNL1        0.1131
     10 N          62.6926   90.0348   11.6464 N.3     1  UNL1       -0.1541
     11 C          59.5107   87.8097    9.3716 C.3     1  UNL1        0.0807
     12 C          59.6304   87.6405    7.8860 C.3     1  UNL1        0.0833
     13 C          59.4952   87.9252    6.4195 C.3     1  UNL1        0.0105
     14 C          58.9379   88.8886    7.4250 C.3     1  UNL1        0.0105
     15 C          60.3646   86.3336    7.8310 C.2     1  UNL1        0.2198
     16 N          61.6516   86.1642    8.5825 N.am    1  UNL1       -0.3288
     17 O          59.8117   85.1961    7.0245 O.2     1  UNL1       -0.2753
     18 H          62.0145   86.9107    9.1118 H       1  UNL1        0.1449
     19 H          62.1335   85.3064    8.5464 H       1  UNL1        0.1449
     20 C          64.8139   91.5182   13.1628 C.ar    1  UNL1        0.1222
     21 C          65.1435   91.1233   14.5719 C.ar    1  UNL1        0.0197
     22 C          66.2042   91.8651   15.3300 C.ar    1  UNL1       -0.0004
     23 C          66.9352   93.0018   14.6792 C.ar    1  UNL1        0.0099
     24 C          66.6055   93.3967   13.2702 C.ar    1  UNL1       -0.0004
     25 C          65.5449   92.6550   12.5120 C.ar    1  UNL1        0.0197
     26 C          67.9958   93.7435   15.4374 C.3     1  UNL1        0.1945
     27 C          69.0565   94.4852   16.1956 C.3     1  UNL1        0.0428
     28 O          67.2972   95.0388   15.1474 O.3     1  UNL1       -0.3751
     29 H          66.5000   94.8658   14.6226 H       1  UNL1        0.2110
     30 C          68.6943   92.4482   15.7274 C.3     1  UNL1        0.4230
     31 F          69.3929   91.1528   16.0174 F       1  UNL1       -0.1673
     32 F          68.2907   92.1254   17.1355 F       1  UNL1       -0.1673
     33 F          69.2846   92.4577   14.3484 F       1  UNL1       -0.1673
@<TRIPOS>BOND
     1     5     4    1
     2     5     6    1
     3     6     7    1
     4     7    11    1
     5    11    12    1
     6    12    15    1
     7    15    16   am
     8    15    17    2
     9    12    13    1
    10    13    14    1
    11     7     8    1
    12     8     9    1
    13     9    10    1
    14    10     1    1
    15     1     2    2
    16     1     3    2
    17     1    20    1
    18    20    21   ar
    19    21    22   ar
    20    22    23   ar
    21    23    26    1
    22    26    27    1
    23    26    28    1
    24    26    30    1
    25    30    31    1
    26    30    32    1
    27    30    33    1
    28    23    24   ar
    29    24    25   ar
    30    10     5    1
    31    25    20   ar
    32    14    12    1
    33    16    18    1
    34    16    19    1
    35    28    29    1
@<TRIPOS>MOLECULE
*****
 33 35 0 0 0
SMALL
GASTEIGER

@<TRIPOS>ATOM
      1 S          61.4236   86.7320   10.2519 S.O2    1  UNL1        0.0633
      2 O          60.5307   87.2941   11.3180 O.2     1  UNL1       -0.1528
      3 O          62.3166   86.1699    9.1858 O.2     1  UNL1       -0.1528
      4 C          61.7516   89.7140   10.2512 C.3     1  UNL1        0.0206
      5 C          60.8820   89.0549    9.2220 C.3     1  UNL1        0.0956
      6 C          60.1764   89.8868    8.1924 C.3     1  UNL1        0.0900
      7 N          59.3068   89.2277    7.1632 N.3     1  UNL1       -0.2698
      8 C          59.1428   87.7367    7.1635 C.3     1  UNL1        0.0915
      9 C          59.8484   86.9048    8.1931 C.3     1  UNL1        0.1131
     10 N          60.7180   87.5639    9.2223 N.3     1  UNL1       -0.1541
     11 C          58.6012   90.0596    6.1336 C.3     1  UNL1        0.0807
     12 C          59.3910   90.9403    5.2112 C.3     1  UNL1        0.0833
     13 C          60.5683   91.5557    4.5147 C.3     1  UNL1        0.0105
     14 C          60.7809   90.4828    5.5410 C.3     1  UNL1        0.0105
     15 C          58.2753   91.7036    4.5611 C.2     1  UNL1        0.2198
     16 N          58.5166   92.4325    3.2725 N.am    1  UNL1       -0.3288
     17 O          56.9184   91.7380    5.1996 O.2     1  UNL1       -0.2753
     18 H          59.4072   92.4099    2.8535 H       1  UNL1        0.1449
     19 H          57.7844   92.9335    2.8458 H       1  UNL1        0.1449
     20 C          62.1292   85.9001   11.2815 C.ar    1  UNL1        0.1222
     21 C          62.1334   84.4047   11.1631 C.ar    1  UNL1        0.0197
     22 C          62.8390   83.5728   12.1928 C.ar    1  UNL1       -0.0004
     23 C          63.5404   84.2363   13.3408 C.ar    1  UNL1        0.0099
     24 C          63.5362   85.7316   13.4592 C.ar    1  UNL1       -0.0004
     25 C          62.8306   86.5635   12.4296 C.ar    1  UNL1        0.0197
     26 C          64.2459   83.4044   14.3703 C.3     1  UNL1        0.1945
     27 C          64.9515   82.5724   15.4000 C.3     1  UNL1        0.0428
     28 O          65.4658   84.2659   14.2305 O.3     1  UNL1       -0.3751
     29 H          65.2986   84.9588   13.5726 H       1  UNL1        0.2110
     30 C          63.0260   82.5428   14.5102 C.3     1  UNL1        0.4230
     31 F          61.8061   81.6812   14.6500 F       1  UNL1       -0.1673
     32 F          63.3989   81.2694   13.8107 F       1  UNL1       -0.1673
     33 F          62.3375   83.6405   15.2660 F       1  UNL1       -0.1673
@<TRIPOS>BOND
     1     5     4    1
     2     5     6    1
     3     6     7    1
     4     7    11    1
     5    11    12    1
     6    12    15    1
     7    15    16   am
     8    15    17    2
     9    12    13    1
    10    13    14    1
    11     7     8    1
    12     8     9    1
    13     9    10    1
    14    10     1    1
    15     1     2    2
    16     1     3    2
    17     1    20    1
    18    20    21   ar
    19    21    22   ar
    20    22    23   ar
    21    23    26    1
    22    26    27    1
    23    26    28    1
    24    26    30    1
    25    30    31    1
    26    30    32    1
    27    30    33    1
    28    23    24   ar
    29    24    25   ar
    30    10     5    1
    31    25    20   ar
    32    14    12    1
    33    16    18    1
    34    16    19    1
    35    28    29    1
