@<TRIPOS>MOLECULE
*****
 60 66 0 0 0
SMALL
GASTEIGER

@<TRIPOS>ATOM
      1 N          64.4957   83.1081   13.1240 N.3     1  UNL1       -0.1862
      2 C          65.0935   84.0177   14.1560 C.3     1  UNL1        0.1775
      3 C          64.6490   85.4477   14.2432 C.2     1  UNL1        0.2452
      4 O          65.2470   86.3573   15.2753 O.2     1  UNL1       -0.2732
      5 N          63.6067   85.9680   13.2984 N.am    1  UNL1       -0.2541
      6 C          63.1622   87.3980   13.3856 C.3     1  UNL1        0.1577
      7 C          62.1198   87.9183   12.4408 C.2     1  UNL1        0.2445
      8 O          61.6753   89.3483   12.5280 O.2     1  UNL1       -0.2731
      9 N          61.5219   87.0087   11.4088 N.am    1  UNL1       -0.2705
     10 C          61.9664   85.5787   11.3215 C.3     1  UNL1        0.1359
     11 C          63.0088   85.0584   12.2664 C.3     1  UNL1        0.1908
     12 N          63.4533   83.6284   12.1792 N.am    1  UNL1       -0.1863
     13 C          62.8554   82.7188   11.1471 C.2     1  UNL1        0.3191
     14 O          61.8130   83.2391   10.2023 O.2     1  UNL1       -0.2512
     15 N          63.2999   81.2888   11.0599 N.am    1  UNL1       -0.2836
     16 H          63.9840   80.9473   11.6800 H       1  UNL1        0.1513
     17 C          64.9402   81.6781   13.0368 C.3     1  UNL1        0.1188
     18 C          62.7853   80.7953   14.1887 C.2     1  UNL1       -0.0034
     19 C          64.2324   80.6228   13.8338 C.2     1  UNL1       -0.0071
     20 C          63.7601   88.3076   14.4176 C.3     1  UNL1        0.0556
     21 C          64.3769   89.6103   14.0022 C.ar    1  UNL1       -0.0198
     22 C          65.4334   90.2460   14.8563 C.ar    1  UNL1       -0.0011
     23 C          66.0503   91.5486   14.4409 C.ar    1  UNL1        0.0363
     24 C          65.6107   92.2155   13.1713 C.ar    1  UNL1        0.1337
     25 O          66.2276   93.5182   12.7558 O.3     1  UNL1       -0.5055
     26 C          64.5542   91.5798   12.3170 C.ar    1  UNL1        0.0363
     27 C          63.9373   90.2772   12.7325 C.ar    1  UNL1       -0.0011
     28 H          66.8876   93.9153   13.2894 H       1  UNL1        0.2922
     29 C          60.4795   87.5290   10.4640 C.3     1  UNL1        0.1217
     30 C          60.7739   88.7242    9.6066 C.ar    1  UNL1        0.0135
     31 C          61.8348   89.7008   10.0201 C.ar    1  UNL1       -0.0012
     32 C          62.1292   90.8959    9.1628 C.ar    1  UNL1       -0.0002
     33 C          61.3628   91.1145    7.8921 C.ar    1  UNL1        0.0016
     34 C          60.3019   90.1379    7.4786 C.ar    1  UNL1        0.0214
     35 C          59.3895   90.0910    6.2890 C.ar    1  UNL1        0.0719
     36 C          58.5313   88.8669    6.4110 C.ar    1  UNL1        0.0805
     37 N          58.9132   88.1573    7.6760 N.ar    1  UNL1       -0.3241
     38 C          58.3072   86.8854    8.1909 C.3     1  UNL1        0.1305
     39 C          60.0075   88.9428    8.3359 C.ar    1  UNL1        0.0577
     40 C          59.3435   91.0925    5.1731 C.2     1  UNL1        0.2476
     41 O          58.0308   91.6783    4.7447 O.2     1  UNL1       -0.2701
     42 N          60.6103   91.5081    4.4857 N.am    1  UNL1       -0.2969
     43 H          61.4719   91.1236    4.7668 H       1  UNL1        0.1501
     44 C          60.5644   92.5095    3.3699 C.3     1  UNL1        0.1167
     45 C          61.7620   92.7057    2.4883 C.ar    1  UNL1        0.0018
     46 C          63.0936   92.1492    2.8973 C.ar    1  UNL1        0.0182
     47 C          64.2912   92.3453    2.0158 C.ar    1  UNL1        0.1000
     48 N          64.1573   93.0980    0.7252 N.ar    1  UNL1       -0.2292
     49 C          62.8258   93.6545    0.3162 C.ar    1  UNL1        0.1315
     50 C          61.6282   93.4584    1.1977 C.ar    1  UNL1        0.0317
     51 N          62.6919   94.4072   -0.9744 N.pl3   1  UNL1       -0.2897
     52 C          61.3371   94.8338   -1.4566 C.3     1  UNL1        0.1136
     53 C          63.9126   94.7333   -1.7826 C.3     1  UNL1        0.1136
     54 C          62.7020   80.3792   10.0279 C.3     1  UNL1        0.1177
     55 C          63.1377   78.9460    9.9486 C.ar    1  UNL1       -0.0025
     56 C          62.5808   77.9385   10.9102 C.ar    1  UNL1       -0.0026
     57 C          63.0165   76.5054   10.8309 C.ar    1  UNL1       -0.0003
     58 C          64.0091   76.0798    9.7900 C.ar    1  UNL1       -0.0000
     59 C          64.5660   77.0873    8.8283 C.ar    1  UNL1       -0.0003
     60 C          64.1303   78.5204    8.9076 C.ar    1  UNL1       -0.0026
@<TRIPOS>BOND
     1    18    19    2
     2    19    17    1
     3    17     1    1
     4     1     2    1
     5     2     3    1
     6     3     4    2
     7     3     5   am
     8     5     6    1
     9     6    20    1
    10    20    21    1
    11    21    22   ar
    12    22    23   ar
    13    23    24   ar
    14    24    25    1
    15    24    26   ar
    16    26    27   ar
    17     6     7    1
    18     7     8    2
    19     7     9   am
    20     9    29    1
    21    29    30    1
    22    30    31   ar
    23    31    32   ar
    24    32    33   ar
    25    33    34   ar
    26    34    35   ar
    27    35    40    1
    28    40    41    2
    29    40    42   am
    30    42    44    1
    31    44    45    1
    32    45    46   ar
    33    46    47   ar
    34    47    48   ar
    35    48    49   ar
    36    49    51    1
    37    51    52    1
    38    51    53    1
    39    49    50   ar
    40    35    36   ar
    41    36    37   ar
    42    37    38    1
    43    37    39   ar
    44     9    10    1
    45    11    10    1
    46    11    12    1
    47    12    13   am
    48    13    14    2
    49    13    15   am
    50    15    54    1
    51    54    55    1
    52    55    56   ar
    53    56    57   ar
    54    57    58   ar
    55    58    59   ar
    56    59    60   ar
    57    12     1    1
    58    60    55   ar
    59    11     5    1
    60    27    21   ar
    61    39    30   ar
    62    39    34   ar
    63    50    45   ar
    64    25    28    1
    65    42    43    1
    66    15    16    1
@<TRIPOS>MOLECULE
*****
 60 66 0 0 0
SMALL
GASTEIGER

@<TRIPOS>ATOM
      1 N          60.9243   89.4253   11.2382 N.3     1  UNL1       -0.1862
      2 C          60.7769   88.9595   12.6564 C.3     1  UNL1        0.1775
      3 C          61.7383   89.4340   13.7055 C.2     1  UNL1        0.2452
      4 O          61.5908   88.9681   15.1237 O.2     1  UNL1       -0.2732
      5 N          62.8472   90.3742   13.3364 N.am    1  UNL1       -0.2541
      6 C          63.8086   90.8487   14.3855 C.3     1  UNL1        0.1577
      7 C          64.9174   91.7890   14.0164 C.2     1  UNL1        0.2445
      8 O          65.8788   92.2635   15.0654 O.2     1  UNL1       -0.2731
      9 N          65.0649   92.2549   12.5981 N.am    1  UNL1       -0.2705
     10 C          64.1035   91.7804   11.5490 C.3     1  UNL1        0.1359
     11 C          62.9946   90.8400   11.9182 C.3     1  UNL1        0.1908
     12 N          62.0332   90.3655   10.8691 N.am    1  UNL1       -0.1863
     13 C          62.1806   90.8314    9.4509 C.2     1  UNL1        0.3191
     14 O          63.2895   91.7717    9.0818 O.2     1  UNL1       -0.2512
     15 N          61.2192   90.3569    8.4018 N.am    1  UNL1       -0.2836
     16 H          60.4915   89.7397    8.6441 H       1  UNL1        0.1513
     17 C          59.9629   88.9508   10.1892 C.3     1  UNL1        0.1188
     18 C          60.2317   87.1661    8.3203 C.2     1  UNL1       -0.0034
     19 C          59.9739   87.5147    9.7563 C.2     1  UNL1       -0.0071
     20 C          63.6611   90.3829   15.8036 C.3     1  UNL1        0.0556
     21 C          63.6553   88.9155   16.1143 C.ar    1  UNL1       -0.0198
     22 C          64.3333   87.9500   15.1879 C.ar    1  UNL1       -0.0011
     23 C          64.3274   86.4826   15.4986 C.ar    1  UNL1        0.0363
     24 C          63.6437   85.9806   16.7357 C.ar    1  UNL1        0.1337
     25 O          63.6379   84.5131   17.0464 O.3     1  UNL1       -0.5055
     26 C          62.9658   86.9460   17.6622 C.ar    1  UNL1        0.0363
     27 C          62.9716   88.4135   17.3515 C.ar    1  UNL1       -0.0011
     28 H          64.0614   83.9100   16.4676 H       1  UNL1        0.2922
     29 C          66.1737   93.1952   12.2290 C.3     1  UNL1        0.1217
     30 C          66.6494   93.2731   10.8085 C.ar    1  UNL1        0.0135
     31 C          67.4361   92.1408   10.2179 C.ar    1  UNL1       -0.0012
     32 C          67.9118   92.2187    8.7974 C.ar    1  UNL1       -0.0002
     33 C          67.6007   93.4289    7.9677 C.ar    1  UNL1        0.0016
     34 C          66.8140   94.5612    8.5583 C.ar    1  UNL1        0.0214
     35 C          66.3582   95.8716    7.9881 C.ar    1  UNL1        0.0719
     36 C          65.6008   96.6035    9.0561 C.ar    1  UNL1        0.0805
     37 N          65.5886   95.7456   10.2863 N.ar    1  UNL1       -0.3241
     38 C          64.9403   96.0894   11.5946 C.3     1  UNL1        0.1305
     39 C          66.3383   94.4833    9.9788 C.ar    1  UNL1        0.0577
     40 C          66.6147   96.3636    6.5944 C.2     1  UNL1        0.2476
     41 O          67.9791   96.8558    6.2121 O.2     1  UNL1       -0.2701
     42 N          65.5069   96.3634    5.5832 N.am    1  UNL1       -0.2969
     43 H          64.6114   96.0404    5.8341 H       1  UNL1        0.1501
     44 C          65.7634   96.8554    4.1896 C.3     1  UNL1        0.1167
     45 C          65.2871   96.0567    3.0126 C.ar    1  UNL1        0.0018
     46 C          65.7182   96.4340    1.6264 C.ar    1  UNL1        0.0182
     47 C          65.2419   95.6353    0.4494 C.ar    1  UNL1        0.1000
     48 N          64.3345   94.4594    0.6587 N.ar    1  UNL1       -0.2292
     49 C          63.9034   94.0821    2.0450 C.ar    1  UNL1        0.1315
     50 C          64.3797   94.8808    3.2220 C.ar    1  UNL1        0.0317
     51 N          62.9959   92.9062    2.2545 N.pl3   1  UNL1       -0.2897
     52 C          61.5565   92.9866    1.8403 C.3     1  UNL1        0.1136
     53 C          63.5280   91.6500    2.8780 C.3     1  UNL1        0.1136
     54 C          61.3667   90.8227    6.9837 C.3     1  UNL1        0.1177
     55 C          60.1501   91.0199    6.1287 C.ar    1  UNL1       -0.0025
     56 C          60.2136   91.9190    4.9298 C.ar    1  UNL1       -0.0026
     57 C          58.9970   92.1162    4.0748 C.ar    1  UNL1       -0.0003
     58 C          57.7168   91.4142    4.4187 C.ar    1  UNL1       -0.0000
     59 C          57.6532   90.5150    5.6177 C.ar    1  UNL1       -0.0003
     60 C          58.8698   90.3178    6.4727 C.ar    1  UNL1       -0.0026
@<TRIPOS>BOND
     1    18    19    2
     2    19    17    1
     3    17     1    1
     4     1     2    1
     5     2     3    1
     6     3     4    2
     7     3     5   am
     8     5     6    1
     9     6    20    1
    10    20    21    1
    11    21    22   ar
    12    22    23   ar
    13    23    24   ar
    14    24    25    1
    15    24    26   ar
    16    26    27   ar
    17     6     7    1
    18     7     8    2
    19     7     9   am
    20     9    29    1
    21    29    30    1
    22    30    31   ar
    23    31    32   ar
    24    32    33   ar
    25    33    34   ar
    26    34    35   ar
    27    35    40    1
    28    40    41    2
    29    40    42   am
    30    42    44    1
    31    44    45    1
    32    45    46   ar
    33    46    47   ar
    34    47    48   ar
    35    48    49   ar
    36    49    51    1
    37    51    52    1
    38    51    53    1
    39    49    50   ar
    40    35    36   ar
    41    36    37   ar
    42    37    38    1
    43    37    39   ar
    44     9    10    1
    45    11    10    1
    46    11    12    1
    47    12    13   am
    48    13    14    2
    49    13    15   am
    50    15    54    1
    51    54    55    1
    52    55    56   ar
    53    56    57   ar
    54    57    58   ar
    55    58    59   ar
    56    59    60   ar
    57    12     1    1
    58    60    55   ar
    59    11     5    1
    60    27    21   ar
    61    39    30   ar
    62    39    34   ar
    63    50    45   ar
    64    25    28    1
    65    42    43    1
    66    15    16    1
@<TRIPOS>MOLECULE
*****
 60 66 0 0 0
SMALL
GASTEIGER

@<TRIPOS>ATOM
      1 N          63.9506   90.0405   12.1214 N.3     1  UNL1       -0.1862
      2 C          63.7295   88.6434   12.6204 C.3     1  UNL1        0.1775
      3 C          62.7286   87.7547   11.9432 C.2     1  UNL1        0.2452
      4 O          62.5075   86.3575   12.4423 O.2     1  UNL1       -0.2732
      5 N          61.9489   88.2632   10.7671 N.am    1  UNL1       -0.2541
      6 C          60.9480   87.3745   10.0899 C.3     1  UNL1        0.1577
      7 C          60.1683   87.8830    8.9137 C.2     1  UNL1        0.2445
      8 O          59.1674   86.9943    8.2366 O.2     1  UNL1       -0.2731
      9 N          60.3894   89.2802    8.4147 N.am    1  UNL1       -0.2705
     10 C          61.3902   90.1689    9.0919 C.3     1  UNL1        0.1359
     11 C          62.1700   89.6603   10.2681 C.3     1  UNL1        0.1908
     12 N          63.1708   90.5490   10.9452 N.am    1  UNL1       -0.1863
     13 C          63.3919   91.9462   10.4462 C.2     1  UNL1        0.3191
     14 O          62.6122   92.4547    9.2700 O.2     1  UNL1       -0.2512
     15 N          64.3928   92.8349   11.1234 N.am    1  UNL1       -0.2836
     16 H          64.9045   92.5011   11.8953 H       1  UNL1        0.1513
     17 C          64.9514   90.9292   12.7986 C.3     1  UNL1        0.1188
     18 C          65.9696   91.9179   14.9747 C.2     1  UNL1       -0.0034
     19 C          64.9178   91.0975   14.2887 C.2     1  UNL1       -0.0071
     20 C          60.7269   85.9774   10.5889 C.3     1  UNL1        0.0556
     21 C          61.8163   84.9541   10.4612 C.ar    1  UNL1       -0.0198
     22 C          61.9611   83.8795   11.4976 C.ar    1  UNL1       -0.0011
     23 C          63.0505   82.8563   11.3699 C.ar    1  UNL1        0.0363
     24 C          63.9950   82.9077   10.2058 C.ar    1  UNL1        0.1337
     25 O          65.0844   81.8845   10.0781 O.3     1  UNL1       -0.5055
     26 C          63.8502   83.9824    9.1693 C.ar    1  UNL1        0.0363
     27 C          62.7609   85.0056    9.2970 C.ar    1  UNL1       -0.0011
     28 H          65.1748   81.2132   10.7255 H       1  UNL1        0.2922
     29 C          59.6096   89.7887    7.2385 C.3     1  UNL1        0.1217
     30 C          60.3239   90.4288    6.0852 C.ar    1  UNL1        0.0135
     31 C          61.8187   90.3474    5.9903 C.ar    1  UNL1       -0.0012
     32 C          62.5330   90.9874    4.8370 C.ar    1  UNL1       -0.0002
     33 C          61.7525   91.7088    3.7786 C.ar    1  UNL1        0.0016
     34 C          60.2577   91.7902    3.8735 C.ar    1  UNL1        0.0214
     35 C          59.2291   92.4289    2.9880 C.ar    1  UNL1        0.0719
     36 C          57.8791   92.1835    3.5940 C.ar    1  UNL1        0.0805
     37 N          58.0734   91.3933    4.8540 N.ar    1  UNL1       -0.3241
     38 C          56.9881   90.9278    5.7789 C.3     1  UNL1        0.1305
     39 C          59.5434   91.1502    5.0267 C.ar    1  UNL1        0.0577
     40 C          59.5026   93.1809    1.7191 C.2     1  UNL1        0.2476
     41 O          59.1336   92.5784    0.3959 O.2     1  UNL1       -0.2701
     42 N          60.1449   94.5353    1.7736 N.am    1  UNL1       -0.2969
     43 H          60.3870   94.9307    2.6421 H       1  UNL1        0.1501
     44 C          60.4184   95.2873    0.5049 C.3     1  UNL1        0.1167
     45 C          61.6628   95.0023   -0.2826 C.ar    1  UNL1        0.0018
     46 C          63.0086   95.1437    0.3644 C.ar    1  UNL1        0.0182
     47 C          64.2530   94.8586   -0.4232 C.ar    1  UNL1        0.1000
     48 N          64.1516   94.4322   -1.8577 N.ar    1  UNL1       -0.2292
     49 C          62.8057   94.2907   -2.5047 C.ar    1  UNL1        0.1315
     50 C          61.5613   94.5758   -1.7172 C.ar    1  UNL1        0.0317
     51 N          62.7041   93.8643   -3.9392 N.pl3   1  UNL1       -0.2897
     52 C          63.6616   92.8492   -4.4894 C.3     1  UNL1        0.1136
     53 C          61.6451   94.4529   -4.8235 C.3     1  UNL1        0.1136
     54 C          64.6139   94.2320   10.6244 C.3     1  UNL1        0.1177
     55 C          65.8515   94.5627    9.8440 C.ar    1  UNL1       -0.0025
     56 C          66.9485   93.5482    9.7124 C.ar    1  UNL1       -0.0026
     57 C          68.1862   93.8789    8.9321 C.ar    1  UNL1       -0.0003
     58 C          68.3268   95.2240    8.2834 C.ar    1  UNL1       -0.0000
     59 C          67.2297   96.2385    8.4150 C.ar    1  UNL1       -0.0003
     60 C          65.9921   95.9079    9.1953 C.ar    1  UNL1       -0.0026
@<TRIPOS>BOND
     1    18    19    2
     2    19    17    1
     3    17     1    1
     4     1     2    1
     5     2     3    1
     6     3     4    2
     7     3     5   am
     8     5     6    1
     9     6    20    1
    10    20    21    1
    11    21    22   ar
    12    22    23   ar
    13    23    24   ar
    14    24    25    1
    15    24    26   ar
    16    26    27   ar
    17     6     7    1
    18     7     8    2
    19     7     9   am
    20     9    29    1
    21    29    30    1
    22    30    31   ar
    23    31    32   ar
    24    32    33   ar
    25    33    34   ar
    26    34    35   ar
    27    35    40    1
    28    40    41    2
    29    40    42   am
    30    42    44    1
    31    44    45    1
    32    45    46   ar
    33    46    47   ar
    34    47    48   ar
    35    48    49   ar
    36    49    51    1
    37    51    52    1
    38    51    53    1
    39    49    50   ar
    40    35    36   ar
    41    36    37   ar
    42    37    38    1
    43    37    39   ar
    44     9    10    1
    45    11    10    1
    46    11    12    1
    47    12    13   am
    48    13    14    2
    49    13    15   am
    50    15    54    1
    51    54    55    1
    52    55    56   ar
    53    56    57   ar
    54    57    58   ar
    55    58    59   ar
    56    59    60   ar
    57    12     1    1
    58    60    55   ar
    59    11     5    1
    60    27    21   ar
    61    39    30   ar
    62    39    34   ar
    63    50    45   ar
    64    25    28    1
    65    42    43    1
    66    15    16    1
@<TRIPOS>MOLECULE
*****
 60 66 0 0 0
SMALL
GASTEIGER

@<TRIPOS>ATOM
      1 N          60.7101   89.6902    9.8640 N.3     1  UNL1       -0.1862
      2 C          61.0429   90.9817   10.5504 C.3     1  UNL1        0.1775
      3 C          61.9934   90.9912   11.7108 C.2     1  UNL1        0.2452
      4 O          62.3262   92.2828   12.3971 O.2     1  UNL1       -0.2732
      5 N          62.6111   89.7091   12.1848 N.am    1  UNL1       -0.2541
      6 C          63.5616   89.7186   13.3451 C.3     1  UNL1        0.1577
      7 C          64.1793   88.4366   13.8191 C.2     1  UNL1        0.2445
      8 O          65.1298   88.4460   14.9795 O.2     1  UNL1       -0.2731
      9 N          63.8465   87.1449   13.1328 N.am    1  UNL1       -0.2705
     10 C          62.8960   87.1355   11.9724 C.3     1  UNL1        0.1359
     11 C          62.2783   88.4176   11.4984 C.3     1  UNL1        0.1908
     12 N          61.3278   88.4081   10.3380 N.am    1  UNL1       -0.1863
     13 C          60.9951   87.1165    9.6516 C.2     1  UNL1        0.3191
     14 O          61.6128   85.8344   10.1256 O.2     1  UNL1       -0.2512
     15 N          60.0446   87.1070    8.4913 N.am    1  UNL1       -0.2836
     16 H          59.6391   87.9485    8.1802 H       1  UNL1        0.1513
     17 C          59.7596   89.6807    8.7036 C.3     1  UNL1        0.1188
     18 C          59.3470   89.7720    6.1402 C.2     1  UNL1       -0.0034
     19 C          60.2714   89.9134    7.3130 C.2     1  UNL1       -0.0071
     20 C          63.8944   91.0101   14.0315 C.3     1  UNL1        0.0556
     21 C          65.3245   91.4438   14.1612 C.ar    1  UNL1       -0.0198
     22 C          66.1909   91.5456   12.9410 C.ar    1  UNL1       -0.0011
     23 C          67.6210   91.9793   13.0708 C.ar    1  UNL1        0.0363
     24 C          68.1846   92.3111   14.4206 C.ar    1  UNL1        0.1337
     25 O          69.6147   92.7447   14.5503 O.3     1  UNL1       -0.5055
     26 C          67.3182   92.2093   15.6409 C.ar    1  UNL1        0.0363
     27 C          65.8881   91.7756   15.5112 C.ar    1  UNL1       -0.0011
     28 H          70.1559   92.8084   13.7881 H       1  UNL1        0.2922
     29 C          64.4642   85.8629   13.6068 C.3     1  UNL1        0.1217
     30 C          63.6402   84.8722   14.3746 C.ar    1  UNL1        0.0135
     31 C          63.3635   85.0962   15.8318 C.ar    1  UNL1       -0.0012
     32 C          62.5394   84.1056   16.5996 C.ar    1  UNL1       -0.0002
     33 C          61.9921   82.8910   15.9103 C.ar    1  UNL1        0.0016
     34 C          62.2688   82.6670   14.4532 C.ar    1  UNL1        0.0214
     35 C          61.8655   81.5710   13.5118 C.ar    1  UNL1        0.0719
     36 C          62.4403   81.8843   12.1622 C.ar    1  UNL1        0.0805
     37 N          63.1988   83.1738   12.2694 N.ar    1  UNL1       -0.3241
     38 C          63.9342   83.8593   11.1563 C.3     1  UNL1        0.1305
     39 C          63.0928   83.6576   13.6853 C.ar    1  UNL1        0.0577
     40 C          61.0335   80.3721   13.8592 C.2     1  UNL1        0.2476
     41 O          61.6495   79.0045   13.8533 O.2     1  UNL1       -0.2701
     42 N          59.5855   80.5410   14.2124 N.am    1  UNL1       -0.2969
     43 H          59.1812   81.4387   14.2162 H       1  UNL1        0.1501
     44 C          58.7534   79.3423   14.5597 C.3     1  UNL1        0.1167
     45 C          57.9267   79.3402   15.8113 C.ar    1  UNL1        0.0018
     46 C          57.7517   78.0717   16.5924 C.ar    1  UNL1        0.0182
     47 C          56.9250   78.0696   17.8441 C.ar    1  UNL1        0.1000
     48 N          56.2733   79.3361   18.3145 N.ar    1  UNL1       -0.2292
     49 C          56.4483   80.6046   17.5334 C.ar    1  UNL1        0.1315
     50 C          57.2750   80.6067   16.2818 C.ar    1  UNL1        0.0317
     51 N          55.7966   81.8711   18.0038 N.pl3   1  UNL1       -0.2897
     52 C          54.9194   82.6539   17.0723 C.3     1  UNL1        0.1136
     53 C          56.0221   82.3548   19.4057 C.3     1  UNL1        0.1136
     54 C          59.7118   85.8155    7.8049 C.3     1  UNL1        0.1177
     55 C          60.7276   85.1510    6.9237 C.ar    1  UNL1       -0.0025
     56 C          60.2862   84.4127    5.6949 C.ar    1  UNL1       -0.0026
     57 C          61.3020   83.7482    4.8137 C.ar    1  UNL1       -0.0003
     58 C          62.7593   83.8220    5.1613 C.ar    1  UNL1       -0.0000
     59 C          63.2008   84.5603    6.3902 C.ar    1  UNL1       -0.0003
     60 C          62.1849   85.2248    7.2714 C.ar    1  UNL1       -0.0026
@<TRIPOS>BOND
     1    18    19    2
     2    19    17    1
     3    17     1    1
     4     1     2    1
     5     2     3    1
     6     3     4    2
     7     3     5   am
     8     5     6    1
     9     6    20    1
    10    20    21    1
    11    21    22   ar
    12    22    23   ar
    13    23    24   ar
    14    24    25    1
    15    24    26   ar
    16    26    27   ar
    17     6     7    1
    18     7     8    2
    19     7     9   am
    20     9    29    1
    21    29    30    1
    22    30    31   ar
    23    31    32   ar
    24    32    33   ar
    25    33    34   ar
    26    34    35   ar
    27    35    40    1
    28    40    41    2
    29    40    42   am
    30    42    44    1
    31    44    45    1
    32    45    46   ar
    33    46    47   ar
    34    47    48   ar
    35    48    49   ar
    36    49    51    1
    37    51    52    1
    38    51    53    1
    39    49    50   ar
    40    35    36   ar
    41    36    37   ar
    42    37    38    1
    43    37    39   ar
    44     9    10    1
    45    11    10    1
    46    11    12    1
    47    12    13   am
    48    13    14    2
    49    13    15   am
    50    15    54    1
    51    54    55    1
    52    55    56   ar
    53    56    57   ar
    54    57    58   ar
    55    58    59   ar
    56    59    60   ar
    57    12     1    1
    58    60    55   ar
    59    11     5    1
    60    27    21   ar
    61    39    30   ar
    62    39    34   ar
    63    50    45   ar
    64    25    28    1
    65    42    43    1
    66    15    16    1
@<TRIPOS>MOLECULE
*****
 60 66 0 0 0
SMALL
GASTEIGER

@<TRIPOS>ATOM
      1 N          64.7669   83.2358   13.1846 N.3     1  UNL1       -0.1862
      2 C          65.5350   84.1514   14.0910 C.3     1  UNL1        0.1775
      3 C          65.0955   85.5748   14.2668 C.2     1  UNL1        0.2452
      4 O          65.8638   86.4905   15.1732 O.2     1  UNL1       -0.2732
      5 N          63.8879   86.0825   13.5362 N.am    1  UNL1       -0.2541
      6 C          63.4484   87.5059   13.7120 C.3     1  UNL1        0.1577
      7 C          62.2407   88.0136   12.9815 C.2     1  UNL1        0.2445
      8 O          61.8012   89.4370   13.1573 O.2     1  UNL1       -0.2731
      9 N          61.4725   87.0980   12.0751 N.am    1  UNL1       -0.2705
     10 C          61.9120   85.6746   11.8993 C.3     1  UNL1        0.1359
     11 C          63.1197   85.1669   12.6299 C.3     1  UNL1        0.1908
     12 N          63.5592   83.7435   12.4541 N.am    1  UNL1       -0.1863
     13 C          62.7910   82.8279   11.5477 C.2     1  UNL1        0.3191
     14 O          61.5833   83.3356   10.8172 O.2     1  UNL1       -0.2512
     15 N          63.2304   81.4045   11.3719 N.am    1  UNL1       -0.2836
     16 H          64.0231   81.0713   11.8514 H       1  UNL1        0.1513
     17 C          65.2064   81.8125   13.0088 C.3     1  UNL1        0.1188
     18 C          63.2068   80.7109   14.2491 C.2     1  UNL1       -0.0034
     19 C          64.6685   80.7442   13.9141 C.2     1  UNL1       -0.0071
     20 C          64.2166   88.4215   14.6184 C.3     1  UNL1        0.0556
     21 C          64.6915   89.7517   14.1133 C.ar    1  UNL1       -0.0198
     22 C          65.6988   90.5366   14.9002 C.ar    1  UNL1       -0.0011
     23 C          66.1737   91.8668   14.3951 C.ar    1  UNL1        0.0363
     24 C          65.6413   92.4120   13.1031 C.ar    1  UNL1        0.1337
     25 O          66.1162   93.7422   12.5981 O.3     1  UNL1       -0.5055
     26 C          64.6340   91.6271   12.3162 C.ar    1  UNL1        0.0363
     27 C          64.1590   90.2969   12.8212 C.ar    1  UNL1       -0.0011
     28 H          66.7454   94.2325   13.0896 H       1  UNL1        0.2922
     29 C          60.2648   87.6057   11.3446 C.3     1  UNL1        0.1217
     30 C          60.2102   87.5370    9.8471 C.ar    1  UNL1        0.0135
     31 C          60.4389   86.2301    9.1474 C.ar    1  UNL1       -0.0012
     32 C          60.3844   86.1614    7.6500 C.ar    1  UNL1       -0.0002
     33 C          60.1011   87.3997    6.8523 C.ar    1  UNL1        0.0016
     34 C          59.8724   88.7066    7.5520 C.ar    1  UNL1        0.0214
     35 C          59.5744   90.0830    7.0355 C.ar    1  UNL1        0.0719
     36 C          59.4448   91.0023    8.2136 C.ar    1  UNL1        0.0805
     37 N          59.6627   90.1941    9.4583 N.ar    1  UNL1       -0.3241
     38 C          59.6233   90.7135   10.8649 C.3     1  UNL1        0.1305
     39 C          59.9269   88.7753    9.0494 C.ar    1  UNL1        0.0577
     40 C          59.4311   90.4718    5.5937 C.2     1  UNL1        0.2476
     41 O          58.1992   90.0836    4.8311 O.2     1  UNL1       -0.2701
     42 N          60.5198   91.2488    4.9147 N.am    1  UNL1       -0.2969
     43 H          61.3284   91.5035    5.4153 H       1  UNL1        0.1501
     44 C          60.3766   91.6376    3.4731 C.3     1  UNL1        0.1167
     45 C          61.4901   92.3634    2.7779 C.ar    1  UNL1        0.0018
     46 C          62.9034   91.8817    2.9203 C.ar    1  UNL1        0.0182
     47 C          64.0168   92.6075    2.2250 C.ar    1  UNL1        0.1000
     48 N          63.7169   93.8152    1.3874 N.ar    1  UNL1       -0.2292
     49 C          62.3036   94.2970    1.2450 C.ar    1  UNL1        0.1315
     50 C          61.1901   93.5711    1.9403 C.ar    1  UNL1        0.0317
     51 N          62.0035   95.5047    0.4074 N.pl3   1  UNL1       -0.2897
     52 C          61.2124   95.3613   -0.8589 C.3     1  UNL1        0.1136
     53 C          62.4947   96.8555    0.8361 C.3     1  UNL1        0.1136
     54 C          62.4623   80.4889   10.4656 C.3     1  UNL1        0.1177
     55 C          62.9566   79.0954   10.2132 C.ar    1  UNL1       -0.0025
     56 C          63.9115   78.8307    9.0871 C.ar    1  UNL1       -0.0026
     57 C          64.4058   77.4372    8.8347 C.ar    1  UNL1       -0.0003
     58 C          63.9452   76.3083    9.7084 C.ar    1  UNL1       -0.0000
     59 C          62.9903   76.5729   10.8346 C.ar    1  UNL1       -0.0003
     60 C          62.4959   77.9664   11.0870 C.ar    1  UNL1       -0.0026
@<TRIPOS>BOND
     1    18    19    2
     2    19    17    1
     3    17     1    1
     4     1     2    1
     5     2     3    1
     6     3     4    2
     7     3     5   am
     8     5     6    1
     9     6    20    1
    10    20    21    1
    11    21    22   ar
    12    22    23   ar
    13    23    24   ar
    14    24    25    1
    15    24    26   ar
    16    26    27   ar
    17     6     7    1
    18     7     8    2
    19     7     9   am
    20     9    29    1
    21    29    30    1
    22    30    31   ar
    23    31    32   ar
    24    32    33   ar
    25    33    34   ar
    26    34    35   ar
    27    35    40    1
    28    40    41    2
    29    40    42   am
    30    42    44    1
    31    44    45    1
    32    45    46   ar
    33    46    47   ar
    34    47    48   ar
    35    48    49   ar
    36    49    51    1
    37    51    52    1
    38    51    53    1
    39    49    50   ar
    40    35    36   ar
    41    36    37   ar
    42    37    38    1
    43    37    39   ar
    44     9    10    1
    45    11    10    1
    46    11    12    1
    47    12    13   am
    48    13    14    2
    49    13    15   am
    50    15    54    1
    51    54    55    1
    52    55    56   ar
    53    56    57   ar
    54    57    58   ar
    55    58    59   ar
    56    59    60   ar
    57    12     1    1
    58    60    55   ar
    59    11     5    1
    60    27    21   ar
    61    39    30   ar
    62    39    34   ar
    63    50    45   ar
    64    25    28    1
    65    42    43    1
    66    15    16    1
@<TRIPOS>MOLECULE
*****
 60 66 0 0 0
SMALL
GASTEIGER

@<TRIPOS>ATOM
      1 N          63.3199   88.8406   11.8272 N.3     1  UNL1       -0.1862
      2 C          62.8404   87.4225   11.7334 C.3     1  UNL1        0.1775
      3 C          61.9160   87.0151   10.6245 C.2     1  UNL1        0.2452
      4 O          61.4365   85.5968   10.5308 O.2     1  UNL1       -0.2732
      5 N          61.4713   88.0258    9.6094 N.am    1  UNL1       -0.2541
      6 C          60.5469   87.6184    8.5005 C.3     1  UNL1        0.1577
      7 C          60.1021   88.6291    7.4854 C.2     1  UNL1        0.2445
      8 O          59.1778   88.2217    6.3765 O.2     1  UNL1       -0.2731
      9 N          60.5817   90.0474    7.5791 N.am    1  UNL1       -0.2705
     10 C          61.5060   90.4548    8.6880 C.3     1  UNL1        0.1359
     11 C          61.9508   89.4440    9.7032 C.3     1  UNL1        0.1908
     12 N          62.8751   89.8514   10.8121 N.am    1  UNL1       -0.1863
     13 C          63.3546   91.2696   10.9058 C.2     1  UNL1        0.3191
     14 O          62.9098   92.2804    9.8907 O.2     1  UNL1       -0.2512
     15 N          64.2789   91.6770   12.0147 N.am    1  UNL1       -0.2836
     16 H          64.5709   91.0136   12.6810 H       1  UNL1        0.1513
     17 C          64.2442   89.2480   12.9361 C.3     1  UNL1        0.1188
     18 C          63.6225   89.3804   15.4552 C.2     1  UNL1       -0.0034
     19 C          64.1331   88.5965   14.2826 C.2     1  UNL1       -0.0071
     20 C          60.0674   86.2002    8.4067 C.3     1  UNL1        0.0556
     21 C          60.6091   85.2943    7.3410 C.ar    1  UNL1       -0.0198
     22 C          59.6694   84.5739    6.4201 C.ar    1  UNL1       -0.0011
     23 C          60.2112   83.6679    5.3544 C.ar    1  UNL1        0.0363
     24 C          61.6925   83.4823    5.2096 C.ar    1  UNL1        0.1337
     25 O          62.2342   82.5763    4.1438 O.3     1  UNL1       -0.5055
     26 C          62.6323   84.2027    6.1304 C.ar    1  UNL1        0.0363
     27 C          62.0906   85.1087    7.1962 C.ar    1  UNL1       -0.0011
     28 H          61.6472   82.1263    3.5686 H       1  UNL1        0.2922
     29 C          60.1369   91.0581    6.5640 C.3     1  UNL1        0.1217
     30 C          60.9064   91.2279    5.2876 C.ar    1  UNL1        0.0135
     31 C          62.3440   90.8058    5.2168 C.ar    1  UNL1       -0.0012
     32 C          63.1135   90.9755    3.9405 C.ar    1  UNL1       -0.0002
     33 C          62.4454   91.5674    2.7350 C.ar    1  UNL1        0.0016
     34 C          61.0077   91.9895    2.8058 C.ar    1  UNL1        0.0214
     35 C          60.0892   92.5987    1.7884 C.ar    1  UNL1        0.0719
     36 C          58.7521   92.8055    2.4359 C.ar    1  UNL1        0.0805
     37 N          58.8442   92.3241    3.8534 N.ar    1  UNL1       -0.3241
     38 C          57.7367   92.3435    4.8649 C.3     1  UNL1        0.1305
     39 C          60.2382   91.8197    4.0821 C.ar    1  UNL1        0.0577
     40 C          60.4454   92.9411    0.3720 C.2     1  UNL1        0.2476
     41 O          61.2322   91.9712   -0.4589 O.2     1  UNL1       -0.2701
     42 N          60.0147   94.2532   -0.2135 N.am    1  UNL1       -0.2969
     43 H          59.4983   94.8897    0.3319 H       1  UNL1        0.1501
     44 C          60.3708   94.5956   -1.6298 C.3     1  UNL1        0.1167
     45 C          61.8069   94.7929   -2.0154 C.ar    1  UNL1        0.0018
     46 C          62.7221   95.5779   -1.1230 C.ar    1  UNL1        0.0182
     47 C          64.1582   95.7751   -1.5086 C.ar    1  UNL1        0.1000
     48 N          64.6791   95.1873   -2.7866 N.ar    1  UNL1       -0.2292
     49 C          63.7640   94.4023   -3.6789 C.ar    1  UNL1        0.1315
     50 C          62.3279   94.2051   -3.2933 C.ar    1  UNL1        0.0317
     51 N          64.2849   93.8145   -4.9569 N.pl3   1  UNL1       -0.2897
     52 C          64.2265   94.6103   -6.2270 C.3     1  UNL1        0.1136
     53 C          64.8642   92.4309   -4.9647 C.3     1  UNL1        0.1136
     54 C          64.7585   93.0952   12.1085 C.3     1  UNL1        0.1177
     55 C          65.7995   93.5996   11.1536 C.ar    1  UNL1       -0.0025
     56 C          66.7609   92.6403   10.5169 C.ar    1  UNL1       -0.0026
     57 C          67.8020   93.1447    9.5620 C.ar    1  UNL1       -0.0003
     58 C          67.8817   94.6084    9.2439 C.ar    1  UNL1       -0.0000
     59 C          66.9203   95.5678    9.8807 C.ar    1  UNL1       -0.0003
     60 C          65.8792   95.0634   10.8356 C.ar    1  UNL1       -0.0026
@<TRIPOS>BOND
     1    18    19    2
     2    19    17    1
     3    17     1    1
     4     1     2    1
     5     2     3    1
     6     3     4    2
     7     3     5   am
     8     5     6    1
     9     6    20    1
    10    20    21    1
    11    21    22   ar
    12    22    23   ar
    13    23    24   ar
    14    24    25    1
    15    24    26   ar
    16    26    27   ar
    17     6     7    1
    18     7     8    2
    19     7     9   am
    20     9    29    1
    21    29    30    1
    22    30    31   ar
    23    31    32   ar
    24    32    33   ar
    25    33    34   ar
    26    34    35   ar
    27    35    40    1
    28    40    41    2
    29    40    42   am
    30    42    44    1
    31    44    45    1
    32    45    46   ar
    33    46    47   ar
    34    47    48   ar
    35    48    49   ar
    36    49    51    1
    37    51    52    1
    38    51    53    1
    39    49    50   ar
    40    35    36   ar
    41    36    37   ar
    42    37    38    1
    43    37    39   ar
    44     9    10    1
    45    11    10    1
    46    11    12    1
    47    12    13   am
    48    13    14    2
    49    13    15   am
    50    15    54    1
    51    54    55    1
    52    55    56   ar
    53    56    57   ar
    54    57    58   ar
    55    58    59   ar
    56    59    60   ar
    57    12     1    1
    58    60    55   ar
    59    11     5    1
    60    27    21   ar
    61    39    30   ar
    62    39    34   ar
    63    50    45   ar
    64    25    28    1
    65    42    43    1
    66    15    16    1
@<TRIPOS>MOLECULE
*****
 60 66 0 0 0
SMALL
GASTEIGER

@<TRIPOS>ATOM
      1 N          64.6844   85.4227   14.5889 N.3     1  UNL1       -0.1862
      2 C          65.0315   86.7327   15.2319 C.3     1  UNL1        0.1775
      3 C          64.4894   88.0123   14.6673 C.2     1  UNL1        0.2452
      4 O          64.8365   89.3223   15.3103 O.2     1  UNL1       -0.2732
      5 N          63.6003   87.9819   13.4596 N.am    1  UNL1       -0.2541
      6 C          63.0582   89.2614   12.8949 C.3     1  UNL1        0.1577
      7 C          62.1691   89.2310   11.6873 C.2     1  UNL1        0.2445
      8 O          61.6270   90.5106   11.1226 O.2     1  UNL1       -0.2731
      9 N          61.8220   87.9210   11.0442 N.am    1  UNL1       -0.2705
     10 C          62.3641   86.6414   11.6088 C.3     1  UNL1        0.1359
     11 C          63.2532   86.6719   12.8166 C.3     1  UNL1        0.1908
     12 N          63.7953   85.3923   13.3812 N.am    1  UNL1       -0.1863
     13 C          63.4482   84.0823   12.7382 C.2     1  UNL1        0.3191
     14 O          62.5591   84.0519   11.5305 O.2     1  UNL1       -0.2512
     15 N          63.9903   82.8027   13.3028 N.am    1  UNL1       -0.2836
     16 H          64.5739   82.8227   14.0955 H       1  UNL1        0.1513
     17 C          65.2265   84.1431   15.1536 C.3     1  UNL1        0.1188
     18 C          62.9509   83.6832   16.3199 C.2     1  UNL1       -0.0034
     19 C          64.3345   83.2374   15.9497 C.2     1  UNL1       -0.0071
     20 C          63.4052   90.5714   13.5379 C.3     1  UNL1        0.0556
     21 C          64.3918   91.4911   12.8815 C.ar    1  UNL1       -0.0198
     22 C          64.3237   91.7317   11.4025 C.ar    1  UNL1       -0.0011
     23 C          65.3102   92.6513   10.7460 C.ar    1  UNL1        0.0363
     24 C          66.3648   93.3304   11.5685 C.ar    1  UNL1        0.1337
     25 O          67.3514   94.2501   10.9121 O.3     1  UNL1       -0.5055
     26 C          66.4329   93.0899   13.0476 C.ar    1  UNL1        0.0363
     27 C          65.4464   92.1702   13.7041 C.ar    1  UNL1       -0.0011
     28 H          67.3088   94.4004    9.9882 H       1  UNL1        0.2922
     29 C          60.9329   87.8906    9.8365 C.3     1  UNL1        0.1217
     30 C          60.9560   89.0284    8.8593 C.ar    1  UNL1        0.0135
     31 C          62.0470   90.0555    8.9297 C.ar    1  UNL1       -0.0012
     32 C          62.0702   91.1932    7.9525 C.ar    1  UNL1       -0.0002
     33 C          61.0024   91.3040    6.9049 C.ar    1  UNL1        0.0016
     34 C          59.9114   90.2769    6.8345 C.ar    1  UNL1        0.0214
     35 C          58.7332   90.1254    5.9187 C.ar    1  UNL1        0.0719
     36 C          57.9818   88.8940    6.3298 C.ar    1  UNL1        0.0805
     37 N          58.6957   88.2845    7.4997 N.ar    1  UNL1       -0.3241
     38 C          58.2885   87.0389    8.2296 C.3     1  UNL1        0.1305
     39 C          59.8882   89.1392    7.8117 C.ar    1  UNL1        0.0577
     40 C          58.3700   91.0441    4.7898 C.2     1  UNL1        0.2476
     41 O          56.9388   91.4376    4.5738 O.2     1  UNL1       -0.2701
     42 N          59.4382   91.5692    3.8769 N.am    1  UNL1       -0.2969
     43 H          60.3776   91.3109    4.0187 H       1  UNL1        0.1501
     44 C          59.0752   92.4878    2.7481 C.3     1  UNL1        0.1167
     45 C          60.0684   92.7672    1.6594 C.ar    1  UNL1        0.0018
     46 C          59.6693   92.6112    0.2219 C.ar    1  UNL1        0.0182
     47 C          60.6625   92.8906   -0.8668 C.ar    1  UNL1        0.1000
     48 N          62.0550   93.3260   -0.5181 N.ar    1  UNL1       -0.2292
     49 C          62.4541   93.4820    0.9193 C.ar    1  UNL1        0.1315
     50 C          61.4609   93.2026    2.0081 C.ar    1  UNL1        0.0317
     51 N          63.8465   93.9174    1.2682 N.pl3   1  UNL1       -0.2897
     52 C          64.0615   95.1461    2.1012 C.3     1  UNL1        0.1136
     53 C          65.0239   93.1240    0.7839 C.3     1  UNL1        0.1136
     54 C          63.6432   81.4928   12.6598 C.3     1  UNL1        0.1177
     55 C          62.4622   80.7073   13.1479 C.ar    1  UNL1       -0.0025
     56 C          61.2727   81.4193   13.7205 C.ar    1  UNL1       -0.0026
     57 C          60.0917   80.6338   14.2085 C.ar    1  UNL1       -0.0003
     58 C          60.1002   79.1363   14.1241 C.ar    1  UNL1       -0.0000
     59 C          61.2898   78.4241   13.5515 C.ar    1  UNL1       -0.0003
     60 C          62.4708   79.2096   13.0634 C.ar    1  UNL1       -0.0026
@<TRIPOS>BOND
     1    18    19    2
     2    19    17    1
     3    17     1    1
     4     1     2    1
     5     2     3    1
     6     3     4    2
     7     3     5   am
     8     5     6    1
     9     6    20    1
    10    20    21    1
    11    21    22   ar
    12    22    23   ar
    13    23    24   ar
    14    24    25    1
    15    24    26   ar
    16    26    27   ar
    17     6     7    1
    18     7     8    2
    19     7     9   am
    20     9    29    1
    21    29    30    1
    22    30    31   ar
    23    31    32   ar
    24    32    33   ar
    25    33    34   ar
    26    34    35   ar
    27    35    40    1
    28    40    41    2
    29    40    42   am
    30    42    44    1
    31    44    45    1
    32    45    46   ar
    33    46    47   ar
    34    47    48   ar
    35    48    49   ar
    36    49    51    1
    37    51    52    1
    38    51    53    1
    39    49    50   ar
    40    35    36   ar
    41    36    37   ar
    42    37    38    1
    43    37    39   ar
    44     9    10    1
    45    11    10    1
    46    11    12    1
    47    12    13   am
    48    13    14    2
    49    13    15   am
    50    15    54    1
    51    54    55    1
    52    55    56   ar
    53    56    57   ar
    54    57    58   ar
    55    58    59   ar
    56    59    60   ar
    57    12     1    1
    58    60    55   ar
    59    11     5    1
    60    27    21   ar
    61    39    30   ar
    62    39    34   ar
    63    50    45   ar
    64    25    28    1
    65    42    43    1
    66    15    16    1
@<TRIPOS>MOLECULE
*****
 60 66 0 0 0
SMALL
GASTEIGER

@<TRIPOS>ATOM
      1 N          63.0764   84.0809    9.4865 N.3     1  UNL1       -0.1862
      2 C          62.5969   84.2075    8.0709 C.3     1  UNL1        0.1775
      3 C          61.6311   85.2937    7.7005 C.2     1  UNL1        0.2452
      4 O          61.1515   85.4203    6.2848 O.2     1  UNL1       -0.2732
      5 N          61.1448   86.2534    8.7457 N.am    1  UNL1       -0.2541
      6 C          60.1789   87.3397    8.3754 C.3     1  UNL1        0.1577
      7 C          59.6926   88.2993    9.4206 C.2     1  UNL1        0.2445
      8 O          58.7268   89.3856    9.0502 O.2     1  UNL1       -0.2731
      9 N          60.1722   88.1728   10.8363 N.am    1  UNL1       -0.2705
     10 C          61.1380   87.0865   11.2066 C.3     1  UNL1        0.1359
     11 C          61.6243   86.1268   10.1613 C.3     1  UNL1        0.1908
     12 N          62.5902   85.0406   10.5317 N.am    1  UNL1       -0.1863
     13 C          63.0697   84.9140   11.9474 C.2     1  UNL1        0.3191
     14 O          62.5834   85.8736   12.9926 O.2     1  UNL1       -0.2512
     15 N          64.0355   83.8277   12.3178 N.am    1  UNL1       -0.2836
     16 H          64.3547   83.1979   11.6318 H       1  UNL1        0.1513
     17 C          64.0423   82.9946    9.8569 C.3     1  UNL1        0.1188
     18 C          62.8652   81.2069   11.3294 C.2     1  UNL1       -0.0034
     19 C          63.5527   81.5904   10.0526 C.2     1  UNL1       -0.0071
     20 C          59.6994   87.4663    6.9598 C.3     1  UNL1        0.0556
     21 C          59.4664   88.8236    6.3653 C.ar    1  UNL1       -0.0198
     22 C          60.6271   89.6356    5.8721 C.ar    1  UNL1       -0.0011
     23 C          60.3942   90.9930    5.2777 C.ar    1  UNL1        0.0363
     24 C          59.0005   91.5383    5.1765 C.ar    1  UNL1        0.1337
     25 O          58.7676   92.8957    4.5821 O.3     1  UNL1       -0.5055
     26 C          57.8397   90.7263    5.6698 C.ar    1  UNL1        0.0363
     27 C          58.0727   89.3689    6.2642 C.ar    1  UNL1       -0.0011
     28 H          59.4927   93.4029    4.2740 H       1  UNL1        0.2922
     29 C          59.6859   89.1324   11.8815 C.3     1  UNL1        0.1217
     30 C          60.5003   89.3700   13.1186 C.ar    1  UNL1        0.0135
     31 C          59.9540   88.9851   14.4615 C.ar    1  UNL1       -0.0012
     32 C          60.7683   89.2227   15.6986 C.ar    1  UNL1       -0.0002
     33 C          62.1289   89.8452   15.5927 C.ar    1  UNL1        0.0016
     34 C          62.6752   90.2301   14.2498 C.ar    1  UNL1        0.0214
     35 C          63.9739   90.8567   13.8366 C.ar    1  UNL1        0.0719
     36 C          63.9622   91.0063   12.3441 C.ar    1  UNL1        0.0805
     37 N          62.6563   90.4723   11.8350 N.ar    1  UNL1       -0.3241
     38 C          62.2220   90.4260   10.4000 C.3     1  UNL1        0.1305
     39 C          61.8609   89.9925   13.0127 C.ar    1  UNL1        0.0577
     40 C          65.0887   91.2624   14.7547 C.2     1  UNL1        0.2476
     41 O          66.3911   90.5188   14.7273 O.2     1  UNL1       -0.2701
     42 N          64.9009   92.4116   15.7002 N.am    1  UNL1       -0.2969
     43 H          64.0461   92.8996   15.7182 H       1  UNL1        0.1501
     44 C          66.0155   92.8174   16.6183 C.3     1  UNL1        0.1167
     45 C          67.3880   93.0673   16.0670 C.ar    1  UNL1        0.0018
     46 C          68.2248   94.1844   16.6163 C.ar    1  UNL1        0.0182
     47 C          69.5973   94.4343   16.0650 C.ar    1  UNL1        0.1000
     48 N          70.1329   93.5671   14.9645 N.ar    1  UNL1       -0.2292
     49 C          69.2960   92.4500   14.4153 C.ar    1  UNL1        0.1315
     50 C          67.9236   92.2001   14.9665 C.ar    1  UNL1        0.0317
     51 N          69.8316   91.5828   13.3147 N.pl3   1  UNL1       -0.2897
     52 C          69.0835   91.4670   12.0198 C.3     1  UNL1        0.1136
     53 C          71.1151   90.8314   13.5092 C.3     1  UNL1        0.1136
     54 C          64.5151   83.7011   13.7334 C.3     1  UNL1        0.1177
     55 C          63.9987   84.6360   14.7866 C.ar    1  UNL1       -0.0025
     56 C          64.6428   85.9767   14.9805 C.ar    1  UNL1       -0.0026
     57 C          64.1264   86.9116   16.0338 C.ar    1  UNL1       -0.0003
     58 C          62.9660   86.5058   16.8932 C.ar    1  UNL1       -0.0000
     59 C          62.3218   85.1650   16.6993 C.ar    1  UNL1       -0.0003
     60 C          62.8382   84.2301   15.6461 C.ar    1  UNL1       -0.0026
@<TRIPOS>BOND
     1    18    19    2
     2    19    17    1
     3    17     1    1
     4     1     2    1
     5     2     3    1
     6     3     4    2
     7     3     5   am
     8     5     6    1
     9     6    20    1
    10    20    21    1
    11    21    22   ar
    12    22    23   ar
    13    23    24   ar
    14    24    25    1
    15    24    26   ar
    16    26    27   ar
    17     6     7    1
    18     7     8    2
    19     7     9   am
    20     9    29    1
    21    29    30    1
    22    30    31   ar
    23    31    32   ar
    24    32    33   ar
    25    33    34   ar
    26    34    35   ar
    27    35    40    1
    28    40    41    2
    29    40    42   am
    30    42    44    1
    31    44    45    1
    32    45    46   ar
    33    46    47   ar
    34    47    48   ar
    35    48    49   ar
    36    49    51    1
    37    51    52    1
    38    51    53    1
    39    49    50   ar
    40    35    36   ar
    41    36    37   ar
    42    37    38    1
    43    37    39   ar
    44     9    10    1
    45    11    10    1
    46    11    12    1
    47    12    13   am
    48    13    14    2
    49    13    15   am
    50    15    54    1
    51    54    55    1
    52    55    56   ar
    53    56    57   ar
    54    57    58   ar
    55    58    59   ar
    56    59    60   ar
    57    12     1    1
    58    60    55   ar
    59    11     5    1
    60    27    21   ar
    61    39    30   ar
    62    39    34   ar
    63    50    45   ar
    64    25    28    1
    65    42    43    1
    66    15    16    1
@<TRIPOS>MOLECULE
*****
 60 66 0 0 0
SMALL
GASTEIGER

@<TRIPOS>ATOM
      1 N          60.7123   89.5662   10.1111 N.3     1  UNL1       -0.1862
      2 C          60.9940   90.8510   10.8321 C.3     1  UNL1        0.1775
      3 C          61.9489   90.8681   11.9889 C.2     1  UNL1        0.2452
      4 O          62.2306   92.1529   12.7099 O.2     1  UNL1       -0.2732
      5 N          62.6219   89.6004   12.4245 N.am    1  UNL1       -0.2541
      6 C          63.5768   89.6175   13.5813 C.3     1  UNL1        0.1577
      7 C          64.2499   88.3498   14.0170 C.2     1  UNL1        0.2445
      8 O          65.2047   88.3669   15.1737 O.2     1  UNL1       -0.2731
      9 N          63.9681   87.0649   13.2959 N.am    1  UNL1       -0.2705
     10 C          63.0133   87.0478   12.1392 C.3     1  UNL1        0.1359
     11 C          62.3402   88.3156   11.7035 C.3     1  UNL1        0.1908
     12 N          61.3854   88.2985   10.5468 N.am    1  UNL1       -0.1863
     13 C          61.1036   87.0137    9.8257 C.2     1  UNL1        0.3191
     14 O          61.7767   85.7460   10.2614 O.2     1  UNL1       -0.2512
     15 N          60.1488   86.9966    8.6690 N.am    1  UNL1       -0.2836
     16 H          59.7070   87.8287    8.3831 H       1  UNL1        0.1513
     17 C          59.7575   89.5492    8.9544 C.3     1  UNL1        0.1188
     18 C          59.3658   89.6873    6.3897 C.2     1  UNL1       -0.0034
     19 C          60.2264   89.9553    7.5887 C.2     1  UNL1       -0.0071
     20 C          63.8585   90.9022   14.3023 C.3     1  UNL1        0.0556
     21 C          65.2612   91.4287   14.3764 C.ar    1  UNL1       -0.0198
     22 C          65.7956   91.9590   15.6737 C.ar    1  UNL1       -0.0011
     23 C          67.1983   92.4854   15.7479 C.ar    1  UNL1        0.0363
     24 C          68.0664   92.4816   14.5247 C.ar    1  UNL1        0.1337
     25 O          69.4690   93.0080   14.5988 O.3     1  UNL1       -0.5055
     26 C          67.5319   91.9513   13.2273 C.ar    1  UNL1        0.0363
     27 C          66.1293   91.4248   13.1531 C.ar    1  UNL1       -0.0011
     28 H          69.8029   93.3393   15.4092 H       1  UNL1        0.2922
     29 C          64.6412   85.7972   13.7316 C.3     1  UNL1        0.1217
     30 C          64.2218   84.4839   13.1405 C.ar    1  UNL1        0.0135
     31 C          64.8003   84.0312   11.8327 C.ar    1  UNL1       -0.0012
     32 C          64.3809   82.7179   11.2416 C.ar    1  UNL1       -0.0002
     33 C          63.3830   81.8574   11.9582 C.ar    1  UNL1        0.0016
     34 C          62.8045   82.3102   13.2660 C.ar    1  UNL1        0.0214
     35 C          61.8093   81.6804   14.1950 C.ar    1  UNL1        0.0719
     36 C          61.6136   82.6045   15.3602 C.ar    1  UNL1        0.0805
     37 N          62.4878   83.8053   15.1514 N.ar    1  UNL1       -0.3241
     38 C          62.6054   84.9815   16.0748 C.3     1  UNL1        0.1305
     39 C          63.2239   83.6234   13.8572 C.ar    1  UNL1        0.0577
     40 C          61.1291   80.3586   13.9939 C.2     1  UNL1        0.2476
     41 O          61.9222   79.1680   13.5428 O.2     1  UNL1       -0.2701
     42 N          59.6559   80.2275   14.2441 N.am    1  UNL1       -0.2969
     43 H          59.1355   81.0089   14.5402 H       1  UNL1        0.1501
     44 C          58.9758   78.9058   14.0431 C.3     1  UNL1        0.1167
     45 C          58.4288   78.1567   15.2220 C.ar    1  UNL1        0.0018
     46 C          58.6739   76.6828   15.3534 C.ar    1  UNL1        0.0182
     47 C          58.1269   75.9337   16.5323 C.ar    1  UNL1        0.1000
     48 N          57.3349   76.6587   17.5797 N.ar    1  UNL1       -0.2292
     49 C          57.0898   78.1327   17.4483 C.ar    1  UNL1        0.1315
     50 C          57.6367   78.8817   16.2694 C.ar    1  UNL1        0.0317
     51 N          56.2977   78.8577   18.4957 N.pl3   1  UNL1       -0.2897
     52 C          55.7054   78.0997   19.6465 C.3     1  UNL1        0.1136
     53 C          56.0980   80.3407   18.3921 C.3     1  UNL1        0.1136
     54 C          59.8670   85.7118    7.9480 C.3     1  UNL1        0.1177
     55 C          60.8981   85.1253    7.0299 C.ar    1  UNL1       -0.0025
     56 C          60.4744   84.4572    5.7555 C.ar    1  UNL1       -0.0026
     57 C          61.5054   83.8707    4.8374 C.ar    1  UNL1       -0.0003
     58 C          62.9602   83.9524    5.1936 C.ar    1  UNL1       -0.0000
     59 C          63.3840   84.6205    6.4680 C.ar    1  UNL1       -0.0003
     60 C          62.3529   85.2070    7.3861 C.ar    1  UNL1       -0.0026
@<TRIPOS>BOND
     1    18    19    2
     2    19    17    1
     3    17     1    1
     4     1     2    1
     5     2     3    1
     6     3     4    2
     7     3     5   am
     8     5     6    1
     9     6    20    1
    10    20    21    1
    11    21    22   ar
    12    22    23   ar
    13    23    24   ar
    14    24    25    1
    15    24    26   ar
    16    26    27   ar
    17     6     7    1
    18     7     8    2
    19     7     9   am
    20     9    29    1
    21    29    30    1
    22    30    31   ar
    23    31    32   ar
    24    32    33   ar
    25    33    34   ar
    26    34    35   ar
    27    35    40    1
    28    40    41    2
    29    40    42   am
    30    42    44    1
    31    44    45    1
    32    45    46   ar
    33    46    47   ar
    34    47    48   ar
    35    48    49   ar
    36    49    51    1
    37    51    52    1
    38    51    53    1
    39    49    50   ar
    40    35    36   ar
    41    36    37   ar
    42    37    38    1
    43    37    39   ar
    44     9    10    1
    45    11    10    1
    46    11    12    1
    47    12    13   am
    48    13    14    2
    49    13    15   am
    50    15    54    1
    51    54    55    1
    52    55    56   ar
    53    56    57   ar
    54    57    58   ar
    55    58    59   ar
    56    59    60   ar
    57    12     1    1
    58    60    55   ar
    59    11     5    1
    60    27    21   ar
    61    39    30   ar
    62    39    34   ar
    63    50    45   ar
    64    25    28    1
    65    42    43    1
    66    15    16    1
