@<TRIPOS>MOLECULE
*****
 21 23 0 0 0
SMALL
GASTEIGER

@<TRIPOS>ATOM
      1 C          66.0427   92.5825   12.3503 C.3     1  UNL1        0.0766
      2 C          66.6499   92.3070   13.6939 C.3     1  UNL1        0.0209
      3 C          66.0667   91.2437   14.5767 C.3     1  UNL1        0.0104
      4 C          64.8764   90.4560   14.1159 C.3     1  UNL1        0.0444
      5 C          64.2691   90.7315   12.7722 C.ar    1  UNL1       -0.0211
      6 C          63.0788   89.9437   12.3114 C.ar    1  UNL1       -0.0042
      7 C          62.4716   90.2192   10.9677 C.ar    1  UNL1       -0.0003
      8 C          63.0548   91.2825   10.0849 C.ar    1  UNL1       -0.0003
      9 C          64.2451   92.0702   10.5458 C.ar    1  UNL1       -0.0033
     10 C          64.8523   91.7947   11.8894 C.ar    1  UNL1       -0.0117
     11 C          64.2932   89.3927   14.9987 C.ar    1  UNL1       -0.0175
     12 C          63.4682   89.7770   16.1910 C.ar    1  UNL1       -0.0030
     13 C          62.8850   88.7137   17.0738 C.ar    1  UNL1        0.0119
     14 C          63.1268   87.2661   16.7643 C.ar    1  UNL1        0.0682
     15 CL         62.5436   86.2028   17.6471 Cl      1  UNL1       -0.0814
     16 C          63.9518   86.8817   15.5719 C.ar    1  UNL1        0.0679
     17 CL         64.1937   85.4341   15.2624 Cl      1  UNL1       -0.0814
     18 C          64.5350   87.9450   14.6891 C.ar    1  UNL1        0.0083
     19 C          66.1679   95.0677   11.6032 C.3     1  UNL1        0.0861
     20 N          66.6259   93.6458   11.4675 N.3     1  UNL1       -0.2940
     21 H          67.6329   93.6440   11.6302 H       1  UNL1        0.1235
@<TRIPOS>BOND
     1    19    20    1
     2     1    20    1
     3     1     2    1
     4     2     3    1
     5     3     4    1
     6     4    11    1
     7    11    12   ar
     8    12    13   ar
     9    13    14   ar
    10    14    15    1
    11    14    16   ar
    12    16    17    1
    13    16    18   ar
    14     4     5    1
    15     5     6   ar
    16     6     7   ar
    17     7     8   ar
    18     8     9   ar
    19     9    10   ar
    20    10     1    1
    21    18    11   ar
    22    10     5   ar
    23    20    21    1
@<TRIPOS>MOLECULE
*****
 21 23 0 0 0
SMALL
GASTEIGER

@<TRIPOS>ATOM
      1 C          64.9566   92.4620   11.5762 C.3     1  UNL1        0.0766
      2 C          63.9952   91.3581   11.2492 C.3     1  UNL1        0.0209
      3 C          63.6634   90.3220   12.2818 C.3     1  UNL1        0.0104
      4 C          64.2930   90.3898   13.6416 C.3     1  UNL1        0.0444
      5 C          65.2545   91.4938   13.9687 C.ar    1  UNL1       -0.0211
      6 C          65.8842   91.5616   15.3284 C.ar    1  UNL1       -0.0042
      7 C          66.8456   92.6655   15.6554 C.ar    1  UNL1       -0.0003
      8 C          67.1774   93.7015   14.6228 C.ar    1  UNL1       -0.0003
      9 C          66.5478   93.6337   13.2630 C.ar    1  UNL1       -0.0033
     10 C          65.5863   92.5298   12.9360 C.ar    1  UNL1       -0.0117
     11 C          63.9612   89.3538   14.6743 C.ar    1  UNL1       -0.0175
     12 C          63.2604   89.7529   15.9389 C.ar    1  UNL1       -0.0030
     13 C          62.9285   88.7168   16.9716 C.ar    1  UNL1        0.0119
     14 C          63.2976   87.2816   16.7396 C.ar    1  UNL1        0.0682
     15 CL         62.9658   86.2455   17.7723 Cl      1  UNL1       -0.0814
     16 C          63.9985   86.8824   15.4749 C.ar    1  UNL1        0.0679
     17 CL         64.3675   85.4471   15.2429 Cl      1  UNL1       -0.0814
     18 C          64.3303   87.9185   14.4422 C.ar    1  UNL1        0.0083
     19 C          66.6308   93.4870    9.8743 C.3     1  UNL1        0.0861
     20 N          65.2884   93.4981   10.5435 N.3     1  UNL1       -0.2940
     21 H          64.5904   93.4116    9.8048 H       1  UNL1        0.1235
@<TRIPOS>BOND
     1    19    20    1
     2     1    20    1
     3     1     2    1
     4     2     3    1
     5     3     4    1
     6     4    11    1
     7    11    12   ar
     8    12    13   ar
     9    13    14   ar
    10    14    15    1
    11    14    16   ar
    12    16    17    1
    13    16    18   ar
    14     4     5    1
    15     5     6   ar
    16     6     7   ar
    17     7     8   ar
    18     8     9   ar
    19     9    10   ar
    20    10     1    1
    21    18    11   ar
    22    10     5   ar
    23    20    21    1
@<TRIPOS>MOLECULE
*****
 21 23 0 0 0
SMALL
GASTEIGER

@<TRIPOS>ATOM
      1 C          60.2582   88.6209    8.4580 C.3     1  UNL1        0.0766
      2 C          60.0765   87.2109    7.9796 C.3     1  UNL1        0.0209
      3 C          60.7955   86.0875    8.6658 C.3     1  UNL1        0.0104
      4 C          61.6963   86.3741    9.8304 C.3     1  UNL1        0.0444
      5 C          61.8781   87.7841   10.3089 C.ar    1  UNL1       -0.0211
      6 C          62.7789   88.0707   11.4735 C.ar    1  UNL1       -0.0042
      7 C          62.9606   89.4807   11.9519 C.ar    1  UNL1       -0.0003
      8 C          62.2415   90.6041   11.2657 C.ar    1  UNL1       -0.0003
      9 C          61.3407   90.3175   10.1011 C.ar    1  UNL1       -0.0033
     10 C          61.1590   88.9075    9.6227 C.ar    1  UNL1       -0.0117
     11 C          62.4154   85.2507   10.5166 C.ar    1  UNL1       -0.0175
     12 C          63.3666   84.3860    9.7437 C.ar    1  UNL1       -0.0030
     13 C          64.0857   83.2626   10.4300 C.ar    1  UNL1        0.0119
     14 C          63.8536   83.0039   11.8891 C.ar    1  UNL1        0.0682
     15 CL         64.5727   81.8805   12.5753 Cl      1  UNL1       -0.0814
     16 C          62.9023   83.8686   12.6621 C.ar    1  UNL1        0.0679
     17 CL         62.6702   83.6099   14.1212 Cl      1  UNL1       -0.0814
     18 C          62.1833   84.9920   11.9759 C.ar    1  UNL1        0.0083
     19 C          59.3196   89.6992    6.2886 C.3     1  UNL1        0.0861
     20 N          59.5391   89.7443    7.7718 N.3     1  UNL1       -0.2940
     21 H          58.6176   89.8116    8.2039 H       1  UNL1        0.1235
@<TRIPOS>BOND
     1    19    20    1
     2     1    20    1
     3     1     2    1
     4     2     3    1
     5     3     4    1
     6     4    11    1
     7    11    12   ar
     8    12    13   ar
     9    13    14   ar
    10    14    15    1
    11    14    16   ar
    12    16    17    1
    13    16    18   ar
    14     4     5    1
    15     5     6   ar
    16     6     7   ar
    17     7     8   ar
    18     8     9   ar
    19     9    10   ar
    20    10     1    1
    21    18    11   ar
    22    10     5   ar
    23    20    21    1
@<TRIPOS>MOLECULE
*****
 21 23 0 0 0
SMALL
GASTEIGER

@<TRIPOS>ATOM
      1 C          64.1720   90.0561   14.1622 C.3     1  UNL1        0.0766
      2 C          65.3839   90.8382   14.5738 C.3     1  UNL1        0.0209
      3 C          66.0067   91.8138   13.6197 C.3     1  UNL1        0.0104
      4 C          65.4174   92.0074   12.2540 C.3     1  UNL1        0.0444
      5 C          64.2054   91.2253   11.8423 C.ar    1  UNL1       -0.0211
      6 C          63.6162   91.4189   10.4765 C.ar    1  UNL1       -0.0042
      7 C          62.4043   90.6368   10.0649 C.ar    1  UNL1       -0.0003
      8 C          61.7815   89.6612   11.0190 C.ar    1  UNL1       -0.0003
      9 C          62.3707   89.4676   12.3847 C.ar    1  UNL1       -0.0033
     10 C          63.5827   90.2497   12.7964 C.ar    1  UNL1       -0.0117
     11 C          66.0402   92.9831   11.2999 C.ar    1  UNL1       -0.0175
     12 C          67.0537   92.5113   10.2998 C.ar    1  UNL1       -0.0030
     13 C          67.6764   93.4869    9.3457 C.ar    1  UNL1        0.0119
     14 C          67.2857   94.9344    9.3917 C.ar    1  UNL1        0.0682
     15 CL         67.9084   95.9100    8.4376 Cl      1  UNL1       -0.0814
     16 C          66.2721   95.4063   10.3918 C.ar    1  UNL1        0.0679
     17 CL         65.8814   96.8537   10.4378 Cl      1  UNL1       -0.0814
     18 C          65.6494   94.4306   11.3459 C.ar    1  UNL1        0.0083
     19 C          63.1667   89.5224   16.4977 C.3     1  UNL1        0.0861
     20 N          63.5492   89.0805   15.1163 N.3     1  UNL1       -0.2940
     21 H          62.6986   88.7356   14.6714 H       1  UNL1        0.1235
@<TRIPOS>BOND
     1    19    20    1
     2     1    20    1
     3     1     2    1
     4     2     3    1
     5     3     4    1
     6     4    11    1
     7    11    12   ar
     8    12    13   ar
     9    13    14   ar
    10    14    15    1
    11    14    16   ar
    12    16    17    1
    13    16    18   ar
    14     4     5    1
    15     5     6   ar
    16     6     7   ar
    17     7     8   ar
    18     8     9   ar
    19     9    10   ar
    20    10     1    1
    21    18    11   ar
    22    10     5   ar
    23    20    21    1
@<TRIPOS>MOLECULE
*****
 21 23 0 0 0
SMALL
GASTEIGER

@<TRIPOS>ATOM
      1 C          63.8946   88.5013   13.6222 C.3     1  UNL1        0.0766
      2 C          64.4102   87.5003   14.6132 C.3     1  UNL1        0.0209
      3 C          64.2082   86.0337   14.3719 C.3     1  UNL1        0.0104
      4 C          63.4908   85.5681   13.1397 C.3     1  UNL1        0.0444
      5 C          62.9752   86.5691   12.1486 C.ar    1  UNL1       -0.0211
      6 C          62.2577   86.1035   10.9164 C.ar    1  UNL1       -0.0042
      7 C          61.7422   87.1045    9.9254 C.ar    1  UNL1       -0.0003
      8 C          61.9441   88.5712   10.1666 C.ar    1  UNL1       -0.0003
      9 C          62.6616   89.0368   11.3989 C.ar    1  UNL1       -0.0033
     10 C          63.1771   88.0357   12.3899 C.ar    1  UNL1       -0.0117
     11 C          63.2889   84.1014   12.8985 C.ar    1  UNL1       -0.0175
     12 C          64.0865   83.3986   11.8403 C.ar    1  UNL1       -0.0030
     13 C          63.8846   81.9319   11.5991 C.ar    1  UNL1        0.0119
     14 C          62.8850   81.1681   12.4160 C.ar    1  UNL1        0.0682
     15 CL         62.6831   79.7015   12.1748 Cl      1  UNL1       -0.0814
     16 C          62.0873   81.8710   13.4742 C.ar    1  UNL1        0.0679
     17 CL         61.0877   81.1072   14.2912 Cl      1  UNL1       -0.0814
     18 C          62.2892   83.3376   13.7155 C.ar    1  UNL1        0.0083
     19 C          63.9044   90.5353   15.2386 C.3     1  UNL1        0.0861
     20 N          64.0965   89.9680   13.8634 N.3     1  UNL1       -0.2940
     21 H          65.0548   90.1826   13.5876 H       1  UNL1        0.1235
@<TRIPOS>BOND
     1    19    20    1
     2     1    20    1
     3     1     2    1
     4     2     3    1
     5     3     4    1
     6     4    11    1
     7    11    12   ar
     8    12    13   ar
     9    13    14   ar
    10    14    15    1
    11    14    16   ar
    12    16    17    1
    13    16    18   ar
    14     4     5    1
    15     5     6   ar
    16     6     7   ar
    17     7     8   ar
    18     8     9   ar
    19     9    10   ar
    20    10     1    1
    21    18    11   ar
    22    10     5   ar
    23    20    21    1
@<TRIPOS>MOLECULE
*****
 21 23 0 0 0
SMALL
GASTEIGER

@<TRIPOS>ATOM
      1 C          63.9360   89.1618   13.5066 C.3     1  UNL1        0.0766
      2 C          64.4250   88.2354   14.5801 C.3     1  UNL1        0.0209
      3 C          64.1804   86.7599   14.4661 C.3     1  UNL1        0.0104
      4 C          63.4469   86.2107   13.2786 C.3     1  UNL1        0.0444
      5 C          62.9578   87.1372   12.2050 C.ar    1  UNL1       -0.0211
      6 C          62.2243   86.5881   11.0174 C.ar    1  UNL1       -0.0042
      7 C          61.7352   87.5145    9.9439 C.ar    1  UNL1       -0.0003
      8 C          61.9798   88.9900   10.0579 C.ar    1  UNL1       -0.0003
      9 C          62.7133   89.5391   11.2454 C.ar    1  UNL1       -0.0033
     10 C          63.2024   88.6127   12.3190 C.ar    1  UNL1       -0.0117
     11 C          63.2023   84.7352   13.1646 C.ar    1  UNL1       -0.0175
     12 C          62.5992   83.9839   14.3142 C.ar    1  UNL1       -0.0030
     13 C          62.3546   82.5084   14.2002 C.ar    1  UNL1        0.0119
     14 C          62.7133   81.7841   12.9366 C.ar    1  UNL1        0.0682
     15 CL         62.4687   80.3086   12.8226 Cl      1  UNL1       -0.0814
     16 C          63.3165   82.5354   11.7869 C.ar    1  UNL1        0.0679
     17 CL         63.6751   81.8112   10.5233 Cl      1  UNL1       -0.0814
     18 C          63.5610   84.0110   11.9009 C.ar    1  UNL1        0.0083
     19 C          65.4614   91.1415   14.2166 C.3     1  UNL1        0.0861
     20 N          64.1805   90.6373   13.6206 N.3     1  UNL1       -0.2940
     21 H          64.1249   91.0188   12.6763 H       1  UNL1        0.1235
@<TRIPOS>BOND
     1    19    20    1
     2     1    20    1
     3     1     2    1
     4     2     3    1
     5     3     4    1
     6     4    11    1
     7    11    12   ar
     8    12    13   ar
     9    13    14   ar
    10    14    15    1
    11    14    16   ar
    12    16    17    1
    13    16    18   ar
    14     4     5    1
    15     5     6   ar
    16     6     7   ar
    17     7     8   ar
    18     8     9   ar
    19     9    10   ar
    20    10     1    1
    21    18    11   ar
    22    10     5   ar
    23    20    21    1
@<TRIPOS>MOLECULE
*****
 21 23 0 0 0
SMALL
GASTEIGER

@<TRIPOS>ATOM
      1 C          65.4124   92.0722   14.8516 C.3     1  UNL1        0.0766
      2 C          64.5226   90.9575   15.3158 C.3     1  UNL1        0.0209
      3 C          63.6939   90.1966   14.3238 C.3     1  UNL1        0.0104
      4 C          63.7549   90.5505   12.8674 C.3     1  UNL1        0.0444
      5 C          64.6447   91.6653   12.4031 C.ar    1  UNL1       -0.0211
      6 C          64.7057   92.0192   10.9467 C.ar    1  UNL1       -0.0042
      7 C          65.5955   93.1339   10.4824 C.ar    1  UNL1       -0.0003
      8 C          66.4242   93.8948   11.4745 C.ar    1  UNL1       -0.0003
      9 C          66.3632   93.5409   12.9309 C.ar    1  UNL1       -0.0033
     10 C          65.4735   92.4262   13.3951 C.ar    1  UNL1       -0.0117
     11 C          62.9261   89.7896   11.8753 C.ar    1  UNL1       -0.0175
     12 C          62.1047   90.5285   10.8608 C.ar    1  UNL1       -0.0030
     13 C          61.2760   89.7677    9.8687 C.ar    1  UNL1        0.0119
     14 C          61.2686   88.2679    9.8912 C.ar    1  UNL1        0.0682
     15 CL         60.4398   87.5070    8.8991 Cl      1  UNL1       -0.0814
     16 C          62.0900   87.5289   10.9057 C.ar    1  UNL1        0.0679
     17 CL         62.0826   86.0291   10.9282 Cl      1  UNL1       -0.0814
     18 C          62.9188   88.2898   11.8978 C.ar    1  UNL1        0.0083
     19 C          67.6653   92.4341   16.0939 C.3     1  UNL1        0.0861
     20 N          66.2412   92.8331   15.8436 N.3     1  UNL1       -0.2940
     21 H          66.2580   93.8037   15.5304 H       1  UNL1        0.1235
@<TRIPOS>BOND
     1    19    20    1
     2     1    20    1
     3     1     2    1
     4     2     3    1
     5     3     4    1
     6     4    11    1
     7    11    12   ar
     8    12    13   ar
     9    13    14   ar
    10    14    15    1
    11    14    16   ar
    12    16    17    1
    13    16    18   ar
    14     4     5    1
    15     5     6   ar
    16     6     7   ar
    17     7     8   ar
    18     8     9   ar
    19     9    10   ar
    20    10     1    1
    21    18    11   ar
    22    10     5   ar
    23    20    21    1
@<TRIPOS>MOLECULE
*****
 21 23 0 0 0
SMALL
GASTEIGER

@<TRIPOS>ATOM
      1 C          62.4208   89.2971   11.0522 C.3     1  UNL1        0.0766
      2 C          61.8256   88.2621   10.1442 C.3     1  UNL1        0.0209
      3 C          61.9351   86.8071   10.4920 C.3     1  UNL1        0.0104
      4 C          62.6398   86.3871   11.7478 C.3     1  UNL1        0.0444
      5 C          63.2350   87.4221   12.6558 C.ar    1  UNL1       -0.0211
      6 C          63.9397   87.0021   13.9116 C.ar    1  UNL1       -0.0042
      7 C          64.5349   88.0371   14.8196 C.ar    1  UNL1       -0.0003
      8 C          64.4254   89.4921   14.4718 C.ar    1  UNL1       -0.0003
      9 C          63.7207   89.9121   13.2160 C.ar    1  UNL1       -0.0033
     10 C          63.1255   88.8771   12.3081 C.ar    1  UNL1       -0.0117
     11 C          62.7493   84.9321   12.0955 C.ar    1  UNL1       -0.0175
     12 C          62.4930   84.4756   13.5012 C.ar    1  UNL1       -0.0030
     13 C          62.6025   83.0205   13.8490 C.ar    1  UNL1        0.0119
     14 C          62.9683   82.0220   12.7911 C.ar    1  UNL1        0.0682
     15 CL         63.0778   80.5670   13.1389 Cl      1  UNL1       -0.0814
     16 C          63.2246   82.4785   11.3854 C.ar    1  UNL1        0.0679
     17 CL         63.5904   81.4800   10.3275 Cl      1  UNL1       -0.0814
     18 C          63.1151   83.9335   11.0376 C.ar    1  UNL1        0.0083
     19 C          63.4684   91.4591   10.0630 C.3     1  UNL1        0.0861
     20 N          62.3113   90.7521   10.7044 N.3     1  UNL1       -0.2940
     21 H          61.5203   90.8438   10.0671 H       1  UNL1        0.1235
@<TRIPOS>BOND
     1    19    20    1
     2     1    20    1
     3     1     2    1
     4     2     3    1
     5     3     4    1
     6     4    11    1
     7    11    12   ar
     8    12    13   ar
     9    13    14   ar
    10    14    15    1
    11    14    16   ar
    12    16    17    1
    13    16    18   ar
    14     4     5    1
    15     5     6   ar
    16     6     7   ar
    17     7     8   ar
    18     8     9   ar
    19     9    10   ar
    20    10     1    1
    21    18    11   ar
    22    10     5   ar
    23    20    21    1
@<TRIPOS>MOLECULE
*****
 21 23 0 0 0
SMALL
GASTEIGER

@<TRIPOS>ATOM
      1 C          64.0851   89.8524   13.6799 C.3     1  UNL1        0.0766
      2 C          63.4822   90.6301   12.5478 C.3     1  UNL1        0.0209
      3 C          62.7545   89.9134   11.4493 C.3     1  UNL1        0.0104
      4 C          62.6297   88.4190   11.4828 C.3     1  UNL1        0.0444
      5 C          63.2326   87.6412   12.6149 C.ar    1  UNL1       -0.0211
      6 C          63.1078   86.1468   12.6485 C.ar    1  UNL1       -0.0042
      7 C          63.7107   85.3691   13.7806 C.ar    1  UNL1       -0.0003
      8 C          64.4384   86.0859   14.8791 C.ar    1  UNL1       -0.0003
      9 C          64.5632   87.5802   14.8456 C.ar    1  UNL1       -0.0033
     10 C          63.9603   88.3579   13.7135 C.ar    1  UNL1       -0.0117
     11 C          61.9021   87.7023   10.3843 C.ar    1  UNL1       -0.0175
     12 C          60.4416   87.9601   10.1593 C.ar    1  UNL1       -0.0030
     13 C          59.7140   87.2434    9.0608 C.ar    1  UNL1        0.0119
     14 C          60.4467   86.2689    8.1872 C.ar    1  UNL1        0.0682
     15 CL         59.7190   85.5522    7.0886 Cl      1  UNL1       -0.0814
     16 C          61.9072   86.0110    8.4121 C.ar    1  UNL1        0.0679
     17 CL         62.6399   85.0364    7.5384 Cl      1  UNL1       -0.0814
     18 C          62.6349   86.7277    9.5106 C.ar    1  UNL1        0.0083
     19 C          65.9161   91.5292   14.4454 C.3     1  UNL1        0.0861
     20 N          64.8128   90.5691   14.7785 N.3     1  UNL1       -0.2940
     21 H          64.1125   91.0952   15.3011 H       1  UNL1        0.1235
@<TRIPOS>BOND
     1    19    20    1
     2     1    20    1
     3     1     2    1
     4     2     3    1
     5     3     4    1
     6     4    11    1
     7    11    12   ar
     8    12    13   ar
     9    13    14   ar
    10    14    15    1
    11    14    16   ar
    12    16    17    1
    13    16    18   ar
    14     4     5    1
    15     5     6   ar
    16     6     7   ar
    17     7     8   ar
    18     8     9   ar
    19     9    10   ar
    20    10     1    1
    21    18    11   ar
    22    10     5   ar
    23    20    21    1
