@<TRIPOS>MOLECULE
*****
 29 32 0 0 0
SMALL
GASTEIGER

@<TRIPOS>ATOM
      1 C          63.6347   89.8688   15.6791 C.2     1  UNL1        0.2474
      2 O          62.3298   89.2777   16.1244 O.2     1  UNL1       -0.2729
      3 N          64.5960   89.0445   14.8753 N.am    1  UNL1       -0.2665
      4 H          65.4524   89.4325   14.5831 H       1  UNL1        0.1564
      5 C          64.2526   87.6291   14.5166 C.ar    1  UNL1        0.1560
      6 C          64.6374   86.5080   15.4359 C.ar    1  UNL1        0.0379
      7 C          64.2941   85.0926   15.0772 C.ar    1  UNL1        0.0239
      8 C          63.5659   84.7983   13.7992 C.ar    1  UNL1        0.1045
      9 N          63.1812   85.9194   12.8799 N.ar    1  UNL1       -0.1467
     10 N          63.5245   87.3348   13.2386 N.ar    1  UNL1       -0.1328
     11 C          63.2226   83.3828   13.4405 C.ar    1  UNL1        0.0386
     12 C          63.3574   82.9148   12.0217 C.ar    1  UNL1        0.0047
     13 C          63.0141   81.4994   11.6630 C.ar    1  UNL1        0.0207
     14 C          62.5358   80.5520   12.7231 C.ar    1  UNL1        0.0989
     15 N          62.4010   81.0200   14.1418 N.ar    1  UNL1       -0.2423
     16 C          62.7443   82.4354   14.5005 C.ar    1  UNL1        0.1004
     17 C          63.9780   91.2843   16.0378 C.3     1  UNL1        0.1775
     18 C          64.6488   92.0611   10.2042 C.3     1  UNL1        0.1235
     19 N          65.1848   92.2029   11.5980 N.am    1  UNL1       -0.2203
     20 C          66.5094   92.7959   11.9771 C.2     1  UNL1        0.2524
     21 O          67.5306   93.3512   11.0291 O.2     1  UNL1       -0.2698
     22 C          66.6336   92.7362   13.4708 C.2     1  UNL1        0.0496
     23 C          65.3857   92.1063   14.0148 C.2     1  UNL1        0.1032
     24 C          64.4903   91.7767   12.8573 C.2     1  UNL1        0.2683
     25 O          63.1378   91.1338   12.9441 O.2     1  UNL1       -0.2681
     26 N          65.2260   91.9142   15.4938 N.pl3   1  UNL1       -0.2964
     27 C          66.3141   92.3520   16.4289 C.3     1  UNL1        0.0917
     28 C          67.5619   92.9819   15.8848 C.3     1  UNL1        0.0263
     29 C          67.7217   93.1740   14.4058 C.3     1  UNL1        0.0342
@<TRIPOS>BOND
     1    18    19    1
     2    19    20   am
     3    20    21    2
     4    20    22    1
     5    22    23    2
     6    23    24    1
     7    24    25    2
     8    23    26    1
     9    26    17    1
    10    17     1    1
    11     1     2    2
    12     1     3   am
    13     3     5    1
    14     5     6   ar
    15     6     7   ar
    16     7     8   ar
    17     8    11    1
    18    11    12   ar
    19    12    13   ar
    20    13    14   ar
    21    14    15   ar
    22    15    16   ar
    23     8     9   ar
    24     9    10   ar
    25    26    27    1
    26    27    28    1
    27    28    29    1
    28    24    19   am
    29    10     5   ar
    30    29    22    1
    31    16    11   ar
    32     3     4    1
@<TRIPOS>MOLECULE
*****
 29 32 0 0 0
SMALL
GASTEIGER

@<TRIPOS>ATOM
      1 C          62.4816   89.7323   12.2716 C.2     1  UNL1        0.2474
      2 O          61.1230   89.1679   11.9788 O.2     1  UNL1       -0.2729
      3 N          63.6018   88.8200   12.6750 N.am    1  UNL1       -0.2665
      4 H          64.4935   89.1904   12.8671 H       1  UNL1        0.1564
      5 C          63.3634   87.3432   12.7856 C.ar    1  UNL1        0.1560
      6 C          62.7317   86.5981   11.6473 C.ar    1  UNL1        0.0379
      7 C          62.4933   85.1213   11.7579 C.ar    1  UNL1        0.0239
      8 C          62.8867   84.3896   13.0069 C.ar    1  UNL1        0.1045
      9 N          63.5184   85.1347   14.1452 N.ar    1  UNL1       -0.1467
     10 N          63.7568   86.6115   14.0345 N.ar    1  UNL1       -0.1328
     11 C          62.6483   82.9128   13.1176 C.ar    1  UNL1        0.0386
     12 C          62.9564   82.0143   11.9566 C.ar    1  UNL1        0.0047
     13 C          62.7181   80.5375   12.0673 C.ar    1  UNL1        0.0207
     14 C          62.1716   79.9592   13.3389 C.ar    1  UNL1        0.0989
     15 N          61.8635   80.8577   14.4998 N.ar    1  UNL1       -0.2423
     16 C          62.1018   82.3345   14.3892 C.ar    1  UNL1        0.1004
     17 C          62.7200   91.2091   12.1609 C.3     1  UNL1        0.1775
     18 C          66.3870   92.3460   16.6716 C.3     1  UNL1        0.1235
     19 N          66.1226   92.3170   15.1953 N.am    1  UNL1       -0.2203
     20 C          67.0865   92.7200   14.1189 C.2     1  UNL1        0.2524
     21 O          68.4839   93.2226   14.3298 O.2     1  UNL1       -0.2698
     22 C          66.4076   92.5320   12.7946 C.2     1  UNL1        0.0496
     23 C          65.0242   92.0129   13.0525 C.2     1  UNL1        0.1032
     24 C          64.8480   91.8800   14.5362 C.2     1  UNL1        0.2683
     25 O          63.6139   91.3953   15.2377 O.2     1  UNL1       -0.2681
     26 N          64.1035   91.7283   11.9030 N.pl3   1  UNL1       -0.2964
     27 C          64.5663   91.9627   10.4956 C.3     1  UNL1        0.0917
     28 C          65.9498   92.4818   10.2377 C.3     1  UNL1        0.0263
     29 C          66.8704   92.7665   11.3872 C.3     1  UNL1        0.0342
@<TRIPOS>BOND
     1    18    19    1
     2    19    20   am
     3    20    21    2
     4    20    22    1
     5    22    23    2
     6    23    24    1
     7    24    25    2
     8    23    26    1
     9    26    17    1
    10    17     1    1
    11     1     2    2
    12     1     3   am
    13     3     5    1
    14     5     6   ar
    15     6     7   ar
    16     7     8   ar
    17     8    11    1
    18    11    12   ar
    19    12    13   ar
    20    13    14   ar
    21    14    15   ar
    22    15    16   ar
    23     8     9   ar
    24     9    10   ar
    25    26    27    1
    26    27    28    1
    27    28    29    1
    28    24    19   am
    29    10     5   ar
    30    29    22    1
    31    16    11   ar
    32     3     4    1
@<TRIPOS>MOLECULE
*****
 29 32 0 0 0
SMALL
GASTEIGER

@<TRIPOS>ATOM
      1 C          60.6995   88.9671   12.0005 C.2     1  UNL1        0.2474
      2 O          60.3671   89.6941   13.2697 O.2     1  UNL1       -0.2729
      3 N          62.1072   88.9672   11.4827 N.am    1  UNL1       -0.2665
      4 H          62.3254   88.4900   10.6497 H       1  UNL1        0.1564
      5 C          63.1827   89.6943   12.2342 C.ar    1  UNL1        0.1560
      6 C          63.6913   91.0118   11.7286 C.ar    1  UNL1        0.0379
      7 C          64.7667   91.7389   12.4800 C.ar    1  UNL1        0.0239
      8 C          65.3336   91.1485   13.7371 C.ar    1  UNL1        0.1045
      9 N          64.8251   89.8311   14.2426 N.ar    1  UNL1       -0.1467
     10 N          63.7496   89.1039   13.4912 N.ar    1  UNL1       -0.1328
     11 C          66.4091   91.8756   14.4886 C.ar    1  UNL1        0.0386
     12 C          67.8069   91.9162   13.9458 C.ar    1  UNL1        0.0047
     13 C          68.8824   92.6434   14.6973 C.ar    1  UNL1        0.0207
     14 C          68.5600   93.3299   15.9915 C.ar    1  UNL1        0.0989
     15 N          67.1622   93.2893   16.5341 N.ar    1  UNL1       -0.2423
     16 C          66.0867   92.5622   15.7827 C.ar    1  UNL1        0.1004
     17 C          59.6240   88.2400   11.2490 C.3     1  UNL1        0.1775
     18 C          63.6348   83.9885   10.2877 C.3     1  UNL1        0.1235
     19 N          62.6106   84.9452    9.7531 N.am    1  UNL1       -0.2203
     20 C          62.2204   85.1055    8.3136 C.2     1  UNL1        0.2524
     21 O          62.7859   84.3372    7.1560 O.2     1  UNL1       -0.2698
     22 C          61.1655   86.1690    8.2349 C.2     1  UNL1        0.0496
     23 C          60.9037   86.6660    9.6257 C.2     1  UNL1        0.1032
     24 C          61.7968   85.9096   10.5641 C.2     1  UNL1        0.2683
     25 O          61.8642   86.0867   12.0520 O.2     1  UNL1       -0.2681
     26 N          59.8858   87.7430    9.8581 N.pl3   1  UNL1       -0.2964
     27 C          59.1298   88.3230    8.6997 C.3     1  UNL1        0.0917
     28 C          59.3917   87.8260    7.3089 C.3     1  UNL1        0.0263
     29 C          60.4095   86.7490    7.0765 C.3     1  UNL1        0.0342
@<TRIPOS>BOND
     1    18    19    1
     2    19    20   am
     3    20    21    2
     4    20    22    1
     5    22    23    2
     6    23    24    1
     7    24    25    2
     8    23    26    1
     9    26    17    1
    10    17     1    1
    11     1     2    2
    12     1     3   am
    13     3     5    1
    14     5     6   ar
    15     6     7   ar
    16     7     8   ar
    17     8    11    1
    18    11    12   ar
    19    12    13   ar
    20    13    14   ar
    21    14    15   ar
    22    15    16   ar
    23     8     9   ar
    24     9    10   ar
    25    26    27    1
    26    27    28    1
    27    28    29    1
    28    24    19   am
    29    10     5   ar
    30    29    22    1
    31    16    11   ar
    32     3     4    1
@<TRIPOS>MOLECULE
*****
 29 32 0 0 0
SMALL
GASTEIGER

@<TRIPOS>ATOM
      1 C          63.1678   88.1578   12.9385 C.2     1  UNL1        0.2474
      2 O          62.2547   87.8738   11.7828 O.2     1  UNL1       -0.2729
      3 N          63.8718   87.0299   13.6330 N.am    1  UNL1       -0.2665
      4 H          64.4711   87.2164   14.3915 H       1  UNL1        0.1564
      5 C          63.6626   85.6180   13.1718 C.ar    1  UNL1        0.1560
      6 C          62.7668   85.3360   12.0021 C.ar    1  UNL1        0.0379
      7 C          62.5576   83.9240   11.5410 C.ar    1  UNL1        0.0239
      8 C          63.2443   82.7941   12.2495 C.ar    1  UNL1        0.1045
      9 N          64.1400   83.0762   13.4190 N.ar    1  UNL1       -0.1467
     10 N          64.3492   84.4881   13.8802 N.ar    1  UNL1       -0.1328
     11 C          63.0351   81.3822   11.7883 C.ar    1  UNL1        0.0386
     12 C          63.1821   81.0381   10.3356 C.ar    1  UNL1        0.0047
     13 C          62.9729   79.6262    9.8745 C.ar    1  UNL1        0.0207
     14 C          62.6168   78.5583   10.8659 C.ar    1  UNL1        0.0989
     15 N          62.4698   78.9024   12.3185 N.ar    1  UNL1       -0.2423
     16 C          62.6790   80.3144   12.7797 C.ar    1  UNL1        0.1004
     17 C          63.3770   89.5698   13.3997 C.3     1  UNL1        0.1775
     18 C          67.4030   93.6475   14.8992 C.3     1  UNL1        0.1235
     19 N          66.4635   93.0702   13.8822 N.am    1  UNL1       -0.2203
     20 C          66.2460   93.5853   12.4903 C.2     1  UNL1        0.2524
     21 O          66.9297   94.7681   11.8710 O.2     1  UNL1       -0.2698
     22 C          65.2247   92.7100   11.8264 C.2     1  UNL1        0.0496
     23 C          64.8111   91.6539   12.8079 C.2     1  UNL1        0.1032
     24 C          65.5767   91.8765   14.0785 C.2     1  UNL1        0.2683
     25 O          65.4736   91.0505   15.3263 O.2     1  UNL1       -0.2681
     26 N          63.7907   90.6259   12.4180 N.pl3   1  UNL1       -0.2964
     27 C          63.1839   90.6540   11.0465 C.3     1  UNL1        0.0917
     28 C          63.5976   91.7101   10.0650 C.3     1  UNL1        0.0263
     29 C          64.6180   92.7381   10.4549 C.3     1  UNL1        0.0342
@<TRIPOS>BOND
     1    18    19    1
     2    19    20   am
     3    20    21    2
     4    20    22    1
     5    22    23    2
     6    23    24    1
     7    24    25    2
     8    23    26    1
     9    26    17    1
    10    17     1    1
    11     1     2    2
    12     1     3   am
    13     3     5    1
    14     5     6   ar
    15     6     7   ar
    16     7     8   ar
    17     8    11    1
    18    11    12   ar
    19    12    13   ar
    20    13    14   ar
    21    14    15   ar
    22    15    16   ar
    23     8     9   ar
    24     9    10   ar
    25    26    27    1
    26    27    28    1
    27    28    29    1
    28    24    19   am
    29    10     5   ar
    30    29    22    1
    31    16    11   ar
    32     3     4    1
