@<TRIPOS>MOLECULE
*****
 45 49 0 0 0
SMALL
GASTEIGER

@<TRIPOS>ATOM
      1 C          62.8496   89.8344   11.5942 C.2     1  UNL1        0.2411
      2 O          62.4920   90.2308   12.4210 O.2     1  UNL1       -0.2733
      3 N          63.7907   90.7476   10.8659 N.am    1  UNL1       -0.2966
      4 H          64.2090   90.4540   10.0244 H       1  UNL1        0.1499
      5 C          62.5459   88.4738   11.0405 C.3     1  UNL1        0.1555
      6 C          63.1213   87.0465   13.1337 C.2     1  UNL1        0.4017
      7 O          64.3428   87.8847   13.3695 O.2     1  UNL1       -0.2264
      8 N          62.2229   87.3411   11.9692 N.am    1  UNL1       -0.2637
      9 H          61.4212   86.7910   11.8144 H       1  UNL1        0.1532
     10 O          62.7983   85.9138   14.0625 O.3     1  UNL1       -0.4419
     11 C          63.5523   84.2533   12.9789 C.3     1  UNL1        0.0437
     12 C          63.8198   84.8484   14.3296 C.3     1  UNL1        0.1378
     13 C          64.0873   85.4435   15.6802 C.3     1  UNL1        0.0437
     14 C          64.8414   83.7829   14.5967 C.3     1  UNL1        0.0437
     15 C          62.5653   88.2460    9.5580 C.3     1  UNL1        0.0576
     16 C          61.3591   87.6776    8.8707 C.ar    1  UNL1        0.0113
     17 C          60.2108   88.5723    8.5091 C.ar    1  UNL1        0.1362
     18 F          60.1397   89.5401    8.6726 F       1  UNL1       -0.2045
     19 C          59.0048   88.0039    7.8218 C.ar    1  UNL1        0.0293
     20 C          58.9470   86.5408    7.4963 C.ar    1  UNL1        0.0022
     21 C          60.0954   85.6461    7.8580 C.ar    1  UNL1        0.0037
     22 C          61.3014   86.2145    8.5452 C.ar    1  UNL1        0.0697
     23 C          62.4498   85.3198    8.9069 C.3     1  UNL1        0.4184
     24 F          63.5982   84.4251    9.2685 F       1  UNL1       -0.1659
     25 F          63.0737   85.5793    7.5677 F       1  UNL1       -0.1659
     26 F          61.8259   85.0603   10.2460 F       1  UNL1       -0.1659
     27 C          64.0944   92.1082   11.4195 C.3     1  UNL1        0.1543
     28 C          65.1334   92.2677   12.4896 C.ar    1  UNL1        0.1417
     29 N          64.8954   92.1884   13.9685 N.ar    1  UNL1       -0.2276
     30 C          66.2077   92.4062   14.6615 C.ar    1  UNL1        0.1167
     31 C          66.5830   92.4374   16.1135 C.ar    1  UNL1        0.0238
     32 C          68.0073   92.6824   16.5149 C.ar    1  UNL1        0.0223
     33 C          69.0564   92.8962   15.4643 C.ar    1  UNL1        0.1006
     34 N          68.6812   92.8650   14.0124 N.ar    1  UNL1       -0.2252
     35 C          67.2569   92.6200   13.6110 C.ar    1  UNL1        0.1626
     36 N          66.5929   92.5344   12.2687 N.ar    1  UNL1       -0.2990
     37 C          67.2696   92.6885   10.9389 C.3     1  UNL1        0.0898
     38 C          68.0995   92.3603    9.7332 C.3     1  UNL1        0.0273
     39 C          67.9456   91.3534   10.8343 C.3     1  UNL1        0.0273
     40 C          66.8287   94.0769   10.5815 C.ar    1  UNL1       -0.0037
     41 C          66.9707   94.5694    9.1719 C.ar    1  UNL1       -0.0025
     42 C          66.5298   95.9579    8.8145 C.ar    1  UNL1       -0.0003
     43 C          65.9468   96.8539    9.8668 C.ar    1  UNL1       -0.0000
     44 C          65.8048   96.3613   11.2766 C.ar    1  UNL1       -0.0003
     45 C          66.2457   94.9729   11.6339 C.ar    1  UNL1       -0.0025
@<TRIPOS>BOND
     1    11    12    1
     2    12    13    1
     3    12    14    1
     4    12    10    1
     5    10     6    1
     6     6     7    2
     7     6     8   am
     8     8     5    1
     9     5    15    1
    10    15    16    1
    11    16    17   ar
    12    17    18    1
    13    17    19   ar
    14    19    20   ar
    15    20    21   ar
    16    21    22   ar
    17    22    23    1
    18    23    24    1
    19    23    25    1
    20    23    26    1
    21     5     1    1
    22     1     2    2
    23     1     3   am
    24     3    27    1
    25    27    28    1
    26    28    29   ar
    27    29    30   ar
    28    30    31   ar
    29    31    32   ar
    30    32    33   ar
    31    33    34   ar
    32    34    35   ar
    33    35    36   ar
    34    36    37    1
    35    37    40    1
    36    40    41   ar
    37    41    42   ar
    38    42    43   ar
    39    43    44   ar
    40    44    45   ar
    41    37    38    1
    42    38    39    1
    43    22    16   ar
    44    36    28   ar
    45    39    37    1
    46    35    30   ar
    47    45    40   ar
    48     8     9    1
    49     3     4    1
@<TRIPOS>MOLECULE
*****
 45 49 0 0 0
SMALL
GASTEIGER

@<TRIPOS>ATOM
      1 C          62.9350   89.5969   11.5602 C.2     1  UNL1        0.2411
      2 O          62.7384   90.0339   12.4197 O.2     1  UNL1       -0.2733
      3 N          63.6942   90.4794   10.6142 N.am    1  UNL1       -0.2966
      4 H          63.9453   90.1448    9.7230 H       1  UNL1        0.1499
      5 C          62.5584   88.2045   11.1483 C.3     1  UNL1        0.1555
      6 C          62.5424   85.7867   12.0990 C.2     1  UNL1        0.4017
      7 O          63.4501   85.3445   10.9897 O.2     1  UNL1       -0.2264
      8 N          62.0966   87.2168   12.1783 N.am    1  UNL1       -0.2637
      9 H          61.5008   87.5070   12.9064 H       1  UNL1        0.1532
     10 O          62.0806   84.7989   13.1290 O.3     1  UNL1       -0.4419
     11 C          63.6738   85.0516   14.5066 C.3     1  UNL1        0.0437
     12 C          63.0699   83.8828   13.7862 C.3     1  UNL1        0.1378
     13 C          62.4660   82.7139   13.0657 C.3     1  UNL1        0.0437
     14 C          64.0593   82.9666   14.4434 C.3     1  UNL1        0.0437
     15 C          62.6437   87.8001    9.7064 C.3     1  UNL1        0.0576
     16 C          61.4138   87.3367    8.9834 C.ar    1  UNL1        0.0113
     17 C          61.4440   86.0627    8.1923 C.ar    1  UNL1        0.1362
     18 F          62.2093   85.4545    8.0779 F       1  UNL1       -0.2045
     19 C          60.2141   85.5994    7.4694 C.ar    1  UNL1        0.0293
     20 C          58.9539   86.4101    7.5376 C.ar    1  UNL1        0.0022
     21 C          58.9237   87.6841    8.3287 C.ar    1  UNL1        0.0037
     22 C          60.1536   88.1474    9.0516 C.ar    1  UNL1        0.0697
     23 C          60.1233   89.4215    9.8428 C.3     1  UNL1        0.4184
     24 F          60.0931   90.6955   10.6340 F       1  UNL1       -0.1659
     25 F          59.4388   88.7057   10.9693 F       1  UNL1       -0.1659
     26 F          60.8079   90.1373    8.7164 F       1  UNL1       -0.1659
     27 C          64.0708   91.8717   11.0260 C.3     1  UNL1        0.1543
     28 C          65.0216   92.0852   12.1664 C.ar    1  UNL1        0.1417
     29 N          64.6891   91.9718   13.6246 N.ar    1  UNL1       -0.2276
     30 C          65.9339   92.2661   14.4082 C.ar    1  UNL1        0.1167
     31 C          66.2064   92.3033   15.8827 C.ar    1  UNL1        0.0238
     32 C          67.5807   92.6360   16.3833 C.ar    1  UNL1        0.0223
     33 C          68.6825   92.9313   15.4092 C.ar    1  UNL1        0.1006
     34 N          68.4100   92.8941   13.9347 N.ar    1  UNL1       -0.2252
     35 C          67.0357   92.5615   13.4342 C.ar    1  UNL1        0.1626
     36 N          66.4719   92.4497   12.0487 N.ar    1  UNL1       -0.2990
     37 C          67.2260   92.6646   10.7700 C.3     1  UNL1        0.0898
     38 C          68.1317   92.3943    9.6052 C.3     1  UNL1        0.0273
     39 C          67.9245   91.3422   10.6540 C.3     1  UNL1        0.0273
     40 C          66.7895   94.0617   10.4418 C.ar    1  UNL1       -0.0037
     41 C          66.2341   94.9462   11.5184 C.ar    1  UNL1       -0.0025
     42 C          65.7976   96.3433   11.1902 C.ar    1  UNL1       -0.0003
     43 C          65.9165   96.8557    9.7855 C.ar    1  UNL1       -0.0000
     44 C          66.4719   95.9711    8.7089 C.ar    1  UNL1       -0.0003
     45 C          66.9084   94.5741    9.0370 C.ar    1  UNL1       -0.0025
@<TRIPOS>BOND
     1    11    12    1
     2    12    13    1
     3    12    14    1
     4    12    10    1
     5    10     6    1
     6     6     7    2
     7     6     8   am
     8     8     5    1
     9     5    15    1
    10    15    16    1
    11    16    17   ar
    12    17    18    1
    13    17    19   ar
    14    19    20   ar
    15    20    21   ar
    16    21    22   ar
    17    22    23    1
    18    23    24    1
    19    23    25    1
    20    23    26    1
    21     5     1    1
    22     1     2    2
    23     1     3   am
    24     3    27    1
    25    27    28    1
    26    28    29   ar
    27    29    30   ar
    28    30    31   ar
    29    31    32   ar
    30    32    33   ar
    31    33    34   ar
    32    34    35   ar
    33    35    36   ar
    34    36    37    1
    35    37    40    1
    36    40    41   ar
    37    41    42   ar
    38    42    43   ar
    39    43    44   ar
    40    44    45   ar
    41    37    38    1
    42    38    39    1
    43    22    16   ar
    44    36    28   ar
    45    39    37    1
    46    35    30   ar
    47    45    40   ar
    48     8     9    1
    49     3     4    1
@<TRIPOS>MOLECULE
*****
 45 49 0 0 0
SMALL
GASTEIGER

@<TRIPOS>ATOM
      1 C          63.5304   86.9253   13.4392 C.2     1  UNL1        0.2411
      2 O          63.9123   86.8813   14.3451 O.2     1  UNL1       -0.2733
      3 N          63.4438   88.3251   12.9071 N.am    1  UNL1       -0.2966
      4 H          63.0768   88.4882   12.0082 H       1  UNL1        0.1499
      5 C          63.0579   85.7740   12.6017 C.3     1  UNL1        0.1555
      6 C          61.5536   86.5482   10.6299 C.2     1  UNL1        0.4017
      7 O          62.7370   87.2077    9.9860 O.2     1  UNL1       -0.2264
      8 N          61.7141   85.8313   11.9377 N.am    1  UNL1       -0.2637
      9 H          60.9374   85.3985   12.3604 H       1  UNL1        0.1532
     10 O          60.2098   86.6055    9.9660 O.3     1  UNL1       -0.4419
     11 C          59.8990   86.5295    7.8690 C.3     1  UNL1        0.0437
     12 C          59.9449   87.6222    8.8954 C.3     1  UNL1        0.1378
     13 C          59.9909   88.7150    9.9219 C.3     1  UNL1        0.0437
     14 C          59.6801   88.6390    7.8248 C.3     1  UNL1        0.0437
     15 C          63.9292   84.5655   12.4281 C.3     1  UNL1        0.0576
     16 C          63.3615   83.1941   12.6452 C.ar    1  UNL1        0.0113
     17 C          63.2625   82.2331   11.4978 C.ar    1  UNL1        0.1362
     18 F          63.5369   82.3925   10.5663 F       1  UNL1       -0.2045
     19 C          62.6948   80.8618   11.7150 C.ar    1  UNL1        0.0293
     20 C          62.2261   80.4515   13.0796 C.ar    1  UNL1        0.0022
     21 C          62.3251   81.4125   14.2270 C.ar    1  UNL1        0.0037
     22 C          62.8928   82.7838   14.0098 C.ar    1  UNL1        0.0697
     23 C          62.9919   83.7450   15.1572 C.3     1  UNL1        0.4184
     24 F          63.0910   84.7060   16.3046 F       1  UNL1       -0.1659
     25 F          64.4044   83.3045   15.4041 F       1  UNL1       -0.1659
     26 F          61.5795   84.1854   14.9103 F       1  UNL1       -0.1659
     27 C          63.9162   89.4764   13.7445 C.3     1  UNL1        0.1543
     28 C          64.4244   90.7244   13.0856 C.ar    1  UNL1        0.1417
     29 N          64.3489   91.0418   11.6215 N.ar    1  UNL1       -0.2276
     30 C          64.9751   92.3877   11.4060 C.ar    1  UNL1        0.1167
     31 C          65.1838   93.2112   10.1698 C.ar    1  UNL1        0.0238
     32 C          65.8551   94.5492   10.2646 C.ar    1  UNL1        0.0223
     33 C          66.3177   95.0637   11.5956 C.ar    1  UNL1        0.1006
     34 N          66.1089   94.2401   12.8317 N.ar    1  UNL1       -0.2252
     35 C          65.4376   92.9021   12.7369 C.ar    1  UNL1        0.1626
     36 N          65.0973   91.8741   13.7749 N.ar    1  UNL1       -0.2990
     37 C          65.3802   91.9778   15.2444 C.3     1  UNL1        0.0898
     38 C          65.1547   91.9683   16.7273 C.3     1  UNL1        0.0273
     39 C          64.0147   91.6880   15.7936 C.3     1  UNL1        0.0273
     40 C          66.8438   92.3035   15.2055 C.ar    1  UNL1       -0.0037
     41 C          67.7507   91.5697   14.2627 C.ar    1  UNL1       -0.0025
     42 C          69.2144   91.8954   14.2238 C.ar    1  UNL1       -0.0003
     43 C          69.7711   92.9550   15.1278 C.ar    1  UNL1       -0.0000
     44 C          68.8642   93.6889   16.0707 C.ar    1  UNL1       -0.0003
     45 C          67.4006   93.3632   16.1096 C.ar    1  UNL1       -0.0025
@<TRIPOS>BOND
     1    11    12    1
     2    12    13    1
     3    12    14    1
     4    12    10    1
     5    10     6    1
     6     6     7    2
     7     6     8   am
     8     8     5    1
     9     5    15    1
    10    15    16    1
    11    16    17   ar
    12    17    18    1
    13    17    19   ar
    14    19    20   ar
    15    20    21   ar
    16    21    22   ar
    17    22    23    1
    18    23    24    1
    19    23    25    1
    20    23    26    1
    21     5     1    1
    22     1     2    2
    23     1     3   am
    24     3    27    1
    25    27    28    1
    26    28    29   ar
    27    29    30   ar
    28    30    31   ar
    29    31    32   ar
    30    32    33   ar
    31    33    34   ar
    32    34    35   ar
    33    35    36   ar
    34    36    37    1
    35    37    40    1
    36    40    41   ar
    37    41    42   ar
    38    42    43   ar
    39    43    44   ar
    40    44    45   ar
    41    37    38    1
    42    38    39    1
    43    22    16   ar
    44    36    28   ar
    45    39    37    1
    46    35    30   ar
    47    45    40   ar
    48     8     9    1
    49     3     4    1
@<TRIPOS>MOLECULE
*****
 45 49 0 0 0
SMALL
GASTEIGER

@<TRIPOS>ATOM
      1 C          63.3783   87.0975   13.1039 C.2     1  UNL1        0.2411
      2 O          63.9126   86.9498   13.9170 O.2     1  UNL1       -0.2733
      3 N          63.2392   88.5484   12.7496 N.am    1  UNL1       -0.2966
      4 H          62.7243   88.8135   11.9534 H       1  UNL1        0.1499
      5 C          62.7329   86.0505   12.2451 C.3     1  UNL1        0.1555
      6 C          61.2305   86.5336   10.1812 C.2     1  UNL1        0.4017
      7 O          62.4422   86.5249    9.2971 O.2     1  UNL1       -0.2264
      8 N          61.3759   86.2963   11.6552 N.am    1  UNL1       -0.2637
      9 H          60.5806   86.3020   12.2355 H       1  UNL1        0.1532
     10 O          59.8735   86.7794    9.5914 O.3     1  UNL1       -0.4419
     11 C          59.2221   86.7139    7.5736 C.3     1  UNL1        0.0437
     12 C          59.7031   87.7924    8.4984 C.3     1  UNL1        0.1378
     13 C          60.1842   88.8710    9.4231 C.3     1  UNL1        0.0437
     14 C          59.5328   88.8055    7.4053 C.3     1  UNL1        0.0437
     15 C          63.4446   84.7577   11.9763 C.3     1  UNL1        0.0576
     16 C          62.9943   83.4984   12.6556 C.ar    1  UNL1        0.0113
     17 C          62.2686   83.5715   13.9663 C.ar    1  UNL1        0.1362
     18 F          62.0349   84.3844   14.4694 F       1  UNL1       -0.2045
     19 C          61.8185   82.3122   14.6455 C.ar    1  UNL1        0.0293
     20 C          62.0940   80.9798   14.0141 C.ar    1  UNL1        0.0022
     21 C          62.8197   80.9067   12.7034 C.ar    1  UNL1        0.0037
     22 C          63.2699   82.1660   12.0241 C.ar    1  UNL1        0.0697
     23 C          63.9956   82.0929   10.7134 C.3     1  UNL1        0.4184
     24 F          64.7213   82.0198    9.4027 F       1  UNL1       -0.1659
     25 F          65.1098   82.9191   11.2843 F       1  UNL1       -0.1659
     26 F          62.8814   81.2667   10.1425 F       1  UNL1       -0.1659
     27 C          63.8846   89.5953   13.6082 C.3     1  UNL1        0.1543
     28 C          64.4168   90.8521   12.9860 C.ar    1  UNL1        0.1417
     29 N          64.3447   91.2154   11.5324 N.ar    1  UNL1       -0.2276
     30 C          64.9979   92.5541   11.3562 C.ar    1  UNL1        0.1167
     31 C          65.2208   93.4104   10.1450 C.ar    1  UNL1        0.0238
     32 C          65.9197   94.7309   10.2785 C.ar    1  UNL1        0.0223
     33 C          66.3955   95.1951   11.6231 C.ar    1  UNL1        0.1006
     34 N          66.1726   94.3388   12.8343 N.ar    1  UNL1       -0.2252
     35 C          65.4737   93.0183   12.7008 C.ar    1  UNL1        0.1626
     36 N          65.1146   91.9664   13.7081 N.ar    1  UNL1       -0.2990
     37 C          65.4028   92.0195   15.1792 C.3     1  UNL1        0.0898
     38 C          65.1812   91.9655   16.6617 C.3     1  UNL1        0.0273
     39 C          64.0352   91.7294   15.7232 C.3     1  UNL1        0.0273
     40 C          66.8703   92.3281   15.1462 C.ar    1  UNL1       -0.0037
     41 C          67.7676   91.6035   14.1873 C.ar    1  UNL1       -0.0025
     42 C          69.2352   91.9121   14.1543 C.ar    1  UNL1       -0.0003
     43 C          69.8053   92.9453   15.0803 C.ar    1  UNL1       -0.0000
     44 C          68.9079   93.6700   16.0393 C.ar    1  UNL1       -0.0003
     45 C          67.4404   93.3614   16.0722 C.ar    1  UNL1       -0.0025
@<TRIPOS>BOND
     1    11    12    1
     2    12    13    1
     3    12    14    1
     4    12    10    1
     5    10     6    1
     6     6     7    2
     7     6     8   am
     8     8     5    1
     9     5    15    1
    10    15    16    1
    11    16    17   ar
    12    17    18    1
    13    17    19   ar
    14    19    20   ar
    15    20    21   ar
    16    21    22   ar
    17    22    23    1
    18    23    24    1
    19    23    25    1
    20    23    26    1
    21     5     1    1
    22     1     2    2
    23     1     3   am
    24     3    27    1
    25    27    28    1
    26    28    29   ar
    27    29    30   ar
    28    30    31   ar
    29    31    32   ar
    30    32    33   ar
    31    33    34   ar
    32    34    35   ar
    33    35    36   ar
    34    36    37    1
    35    37    40    1
    36    40    41   ar
    37    41    42   ar
    38    42    43   ar
    39    43    44   ar
    40    44    45   ar
    41    37    38    1
    42    38    39    1
    43    22    16   ar
    44    36    28   ar
    45    39    37    1
    46    35    30   ar
    47    45    40   ar
    48     8     9    1
    49     3     4    1
@<TRIPOS>MOLECULE
*****
 45 49 0 0 0
SMALL
GASTEIGER

@<TRIPOS>ATOM
      1 C          63.8226   86.9592   13.7985 C.2     1  UNL1        0.2411
      2 O          64.4807   86.8789   14.5258 O.2     1  UNL1       -0.2733
      3 N          63.5399   88.3824   13.4183 N.am    1  UNL1       -0.2966
      4 H          62.8959   88.5816   12.7008 H       1  UNL1        0.1499
      5 C          63.1239   85.8395   13.0855 C.3     1  UNL1        0.1555
      6 C          62.7052   83.7426   14.5613 C.2     1  UNL1        0.4017
      7 O          61.6610   84.4940   15.3327 O.2     1  UNL1       -0.2264
      8 N          63.4367   84.4153   13.4377 N.am    1  UNL1       -0.2637
      9 H          64.1220   83.9222   12.9313 H       1  UNL1        0.1532
     10 O          63.0179   82.3184   14.9134 O.3     1  UNL1       -0.4419
     11 C          61.2742   81.3129   14.2439 C.3     1  UNL1        0.0437
     12 C          62.7377   81.2233   13.9275 C.3     1  UNL1        0.1378
     13 C          64.2012   81.1336   13.6112 C.3     1  UNL1        0.0437
     14 C          62.4574   80.1280   12.9416 C.3     1  UNL1        0.0437
     15 C          62.1126   86.1440   12.0204 C.3     1  UNL1        0.0576
     16 C          62.3762   85.7429   10.5992 C.ar    1  UNL1        0.0113
     17 C          63.1651   84.5016   10.3043 C.ar    1  UNL1        0.1362
     18 F          63.5557   83.8787   10.9583 F       1  UNL1       -0.2045
     19 C          63.4286   84.1006    8.8831 C.ar    1  UNL1        0.0293
     20 C          62.9033   84.9407    7.7570 C.ar    1  UNL1        0.0022
     21 C          62.1144   86.1819    8.0520 C.ar    1  UNL1        0.0037
     22 C          61.8509   86.5830    9.4731 C.ar    1  UNL1        0.0697
     23 C          61.0620   87.8243    9.7681 C.3     1  UNL1        0.4184
     24 F          60.2731   89.0654   10.0631 F       1  UNL1       -0.1659
     25 F          59.7916   87.0282    9.7201 F       1  UNL1       -0.1659
     26 F          62.3324   88.6203    9.8161 F       1  UNL1       -0.1659
     27 C          64.2385   89.5020   14.1312 C.3     1  UNL1        0.1543
     28 C          64.6511   90.7304   13.3757 C.ar    1  UNL1        0.1417
     29 N          64.5001   90.9499   11.8996 N.ar    1  UNL1       -0.2276
     30 C          65.0428   92.3102   11.5753 C.ar    1  UNL1        0.1167
     31 C          65.1569   93.0634   10.2831 C.ar    1  UNL1        0.0238
     32 C          65.7575   94.4378   10.2667 C.ar    1  UNL1        0.0223
     33 C          66.2439   95.0590   11.5425 C.ar    1  UNL1        0.1006
     34 N          66.1299   94.3058   12.8346 N.ar    1  UNL1       -0.2252
     35 C          65.5293   92.9314   12.8510 C.ar    1  UNL1        0.1626
     36 N          65.2872   91.9550   13.9637 N.ar    1  UNL1       -0.2990
     37 C          65.6224   92.1663   15.4105 C.3     1  UNL1        0.0898
     38 C          65.4482   92.2754   16.8963 C.3     1  UNL1        0.0273
     39 C          64.2721   91.9456   16.0256 C.3     1  UNL1        0.0273
     40 C          67.0889   92.4603   15.2979 C.ar    1  UNL1       -0.0037
     41 C          67.7008   93.5511   16.1259 C.ar    1  UNL1       -0.0025
     42 C          69.1674   93.8452   16.0134 C.ar    1  UNL1       -0.0003
     43 C          70.0220   93.0484   15.0727 C.ar    1  UNL1       -0.0000
     44 C          69.4101   91.9576   14.2446 C.ar    1  UNL1       -0.0003
     45 C          67.9435   91.6636   14.3572 C.ar    1  UNL1       -0.0025
@<TRIPOS>BOND
     1    11    12    1
     2    12    13    1
     3    12    14    1
     4    12    10    1
     5    10     6    1
     6     6     7    2
     7     6     8   am
     8     8     5    1
     9     5    15    1
    10    15    16    1
    11    16    17   ar
    12    17    18    1
    13    17    19   ar
    14    19    20   ar
    15    20    21   ar
    16    21    22   ar
    17    22    23    1
    18    23    24    1
    19    23    25    1
    20    23    26    1
    21     5     1    1
    22     1     2    2
    23     1     3   am
    24     3    27    1
    25    27    28    1
    26    28    29   ar
    27    29    30   ar
    28    30    31   ar
    29    31    32   ar
    30    32    33   ar
    31    33    34   ar
    32    34    35   ar
    33    35    36   ar
    34    36    37    1
    35    37    40    1
    36    40    41   ar
    37    41    42   ar
    38    42    43   ar
    39    43    44   ar
    40    44    45   ar
    41    37    38    1
    42    38    39    1
    43    22    16   ar
    44    36    28   ar
    45    39    37    1
    46    35    30   ar
    47    45    40   ar
    48     8     9    1
    49     3     4    1
@<TRIPOS>MOLECULE
*****
 45 49 0 0 0
SMALL
GASTEIGER

@<TRIPOS>ATOM
      1 C          63.0458   89.2925   12.1752 C.2     1  UNL1        0.2411
      2 O          62.8094   89.8066   12.9804 O.2     1  UNL1       -0.2733
      3 N          63.7825   90.1080   11.1544 N.am    1  UNL1       -0.2966
      4 H          64.0690   89.6950   10.3079 H       1  UNL1        0.1499
      5 C          62.7456   87.8476   11.9062 C.3     1  UNL1        0.1555
      6 C          60.3710   87.7700   10.8550 C.2     1  UNL1        0.4017
      7 O          59.8114   88.4510   12.0687 O.2     1  UNL1       -0.2264
      8 N          61.8381   87.4683   10.7738 N.am    1  UNL1       -0.2637
      9 H          62.2054   87.0213    9.9772 H       1  UNL1        0.1532
     10 O          59.4635   87.3907    9.7225 O.3     1  UNL1       -0.4419
     11 C          59.9918   89.3662    9.1589 C.3     1  UNL1        0.0437
     12 C          59.5273   88.1426    8.4262 C.3     1  UNL1        0.1378
     13 C          59.0628   86.9189    7.6936 C.3     1  UNL1        0.0437
     14 C          59.5911   88.8946    7.1299 C.3     1  UNL1        0.0437
     15 C          63.3530   86.7820   12.7698 C.3     1  UNL1        0.0576
     16 C          63.1048   85.3351   12.4618 C.ar    1  UNL1        0.0113
     17 C          62.9837   84.8816   11.0371 C.ar    1  UNL1        0.1362
     18 F          63.0494   85.4407   10.2299 F       1  UNL1       -0.2045
     19 C          62.7354   83.4347   10.7292 C.ar    1  UNL1        0.0293
     20 C          62.6083   82.4413   11.8459 C.ar    1  UNL1        0.0022
     21 C          62.7294   82.8948   13.2705 C.ar    1  UNL1        0.0037
     22 C          62.9776   84.3417   13.5785 C.ar    1  UNL1        0.0697
     23 C          63.0987   84.7953   15.0032 C.3     1  UNL1        0.4184
     24 F          63.2198   85.2488   16.4278 F       1  UNL1       -0.1659
     25 F          61.6143   84.6614   15.1719 F       1  UNL1       -0.1659
     26 F          64.5831   84.9292   14.8344 F       1  UNL1       -0.1659
     27 C          64.0826   91.5529   11.4233 C.3     1  UNL1        0.1543
     28 C          65.0740   91.9280   12.4846 C.ar    1  UNL1        0.1417
     29 N          64.8314   91.9073   13.9647 N.ar    1  UNL1       -0.2276
     30 C          66.0896   92.3562   14.6470 C.ar    1  UNL1        0.1167
     31 C          66.4380   92.5320   16.0953 C.ar    1  UNL1        0.0238
     32 C          67.8067   93.0060   16.4852 C.ar    1  UNL1        0.0223
     33 C          68.8269   93.3042   15.4268 C.ar    1  UNL1        0.1006
     34 N          68.4784   93.1285   13.9785 N.ar    1  UNL1       -0.2252
     35 C          67.1098   92.6545   13.5886 C.ar    1  UNL1        0.1626
     36 N          66.4821   92.3898   12.2522 N.ar    1  UNL1       -0.2990
     37 C          67.1460   92.5575   10.9176 C.3     1  UNL1        0.0898
     38 C          67.9318   92.2287    9.6830 C.3     1  UNL1        0.0273
     39 C          67.7275   91.1860   10.7417 C.3     1  UNL1        0.0273
     40 C          66.7953   93.9873   10.6300 C.ar    1  UNL1       -0.0037
     41 C          67.1599   94.5978    9.3093 C.ar    1  UNL1       -0.0025
     42 C          66.8091   96.0276    9.0217 C.ar    1  UNL1       -0.0003
     43 C          66.0937   96.8468   10.0548 C.ar    1  UNL1       -0.0000
     44 C          65.7291   96.2361   11.3755 C.ar    1  UNL1       -0.0003
     45 C          66.0799   94.8064   11.6631 C.ar    1  UNL1       -0.0025
@<TRIPOS>BOND
     1    11    12    1
     2    12    13    1
     3    12    14    1
     4    12    10    1
     5    10     6    1
     6     6     7    2
     7     6     8   am
     8     8     5    1
     9     5    15    1
    10    15    16    1
    11    16    17   ar
    12    17    18    1
    13    17    19   ar
    14    19    20   ar
    15    20    21   ar
    16    21    22   ar
    17    22    23    1
    18    23    24    1
    19    23    25    1
    20    23    26    1
    21     5     1    1
    22     1     2    2
    23     1     3   am
    24     3    27    1
    25    27    28    1
    26    28    29   ar
    27    29    30   ar
    28    30    31   ar
    29    31    32   ar
    30    32    33   ar
    31    33    34   ar
    32    34    35   ar
    33    35    36   ar
    34    36    37    1
    35    37    40    1
    36    40    41   ar
    37    41    42   ar
    38    42    43   ar
    39    43    44   ar
    40    44    45   ar
    41    37    38    1
    42    38    39    1
    43    22    16   ar
    44    36    28   ar
    45    39    37    1
    46    35    30   ar
    47    45    40   ar
    48     8     9    1
    49     3     4    1
@<TRIPOS>MOLECULE
*****
 45 49 0 0 0
SMALL
GASTEIGER

@<TRIPOS>ATOM
      1 C          62.6058   88.4069   12.1677 C.2     1  UNL1        0.2411
      2 O          62.0100   89.1863   12.2461 O.2     1  UNL1       -0.2733
      3 N          63.8512   88.5360   12.9937 N.am    1  UNL1       -0.2966
      4 H          64.5203   87.8138   12.9917 H       1  UNL1        0.1499
      5 C          62.3797   87.1774   11.3388 C.3     1  UNL1        0.1555
      6 C          62.6491   85.1159   12.8969 C.2     1  UNL1        0.4017
      7 O          64.0615   85.5246   13.1935 O.2     1  UNL1       -0.2264
      8 N          61.8082   85.9423   11.9695 N.am    1  UNL1       -0.2637
      9 H          60.8811   85.6740   11.7748 H       1  UNL1        0.1532
     10 O          62.0775   83.8808   13.5276 O.3     1  UNL1       -0.4419
     11 C          63.0867   82.6987   14.9713 C.3     1  UNL1        0.0437
     12 C          62.8498   82.5953   13.4937 C.3     1  UNL1        0.1378
     13 C          62.6129   82.4919   12.0162 C.3     1  UNL1        0.0437
     14 C          63.6221   81.3098   13.4599 C.3     1  UNL1        0.0437
     15 C          62.7251   87.1830    9.8791 C.3     1  UNL1        0.0576
     16 C          61.7540   86.6338    8.8764 C.ar    1  UNL1        0.0113
     17 C          62.1146   85.4225    8.0686 C.ar    1  UNL1        0.1362
     18 F          62.9537   84.9100    8.1117 F       1  UNL1       -0.2045
     19 C          61.1435   84.8733    7.0660 C.ar    1  UNL1        0.0293
     20 C          59.8117   85.5355    6.8712 C.ar    1  UNL1        0.0022
     21 C          59.4510   86.7467    7.6791 C.ar    1  UNL1        0.0037
     22 C          60.4222   87.2959    8.6817 C.ar    1  UNL1        0.0697
     23 C          60.0616   88.5072    9.4896 C.3     1  UNL1        0.4184
     24 F          59.7010   89.7185   10.2975 F       1  UNL1       -0.1659
     25 F          60.7252   89.3847    8.4701 F       1  UNL1       -0.1659
     26 F          59.3979   87.6297   10.5092 F       1  UNL1       -0.1659
     27 C          64.0774   89.7655   13.8226 C.3     1  UNL1        0.1543
     28 C          64.5684   91.0265   13.1755 C.ar    1  UNL1        0.1417
     29 N          64.4552   91.3727   11.7204 N.ar    1  UNL1       -0.2276
     30 C          65.0757   92.7229   11.5154 C.ar    1  UNL1        0.1167
     31 C          65.2526   93.5707   10.2908 C.ar    1  UNL1        0.0238
     32 C          65.9262   94.9069   10.3946 C.ar    1  UNL1        0.0223
     33 C          66.4230   95.3952   11.7231 C.ar    1  UNL1        0.1006
     34 N          66.2461   94.5473   12.9477 N.ar    1  UNL1       -0.2252
     35 C          65.5725   93.2112   12.8439 C.ar    1  UNL1        0.1626
     36 N          65.2589   92.1627   13.8698 N.ar    1  UNL1       -0.2990
     37 C          65.5797   92.2375   15.3332 C.3     1  UNL1        0.0898
     38 C          65.3876   92.2235   16.8208 C.3     1  UNL1        0.0273
     39 C          64.2145   92.0080   15.9112 C.3     1  UNL1        0.0273
     40 C          67.0561   92.4930   15.2636 C.ar    1  UNL1       -0.0037
     41 C          67.6748   93.5545   16.1239 C.ar    1  UNL1       -0.0025
     42 C          69.1513   93.8101   16.0544 C.ar    1  UNL1       -0.0003
     43 C          70.0089   93.0040   15.1244 C.ar    1  UNL1       -0.0000
     44 C          69.3901   91.9424   14.2641 C.ar    1  UNL1       -0.0003
     45 C          67.9137   91.6869   14.3337 C.ar    1  UNL1       -0.0025
@<TRIPOS>BOND
     1    11    12    1
     2    12    13    1
     3    12    14    1
     4    12    10    1
     5    10     6    1
     6     6     7    2
     7     6     8   am
     8     8     5    1
     9     5    15    1
    10    15    16    1
    11    16    17   ar
    12    17    18    1
    13    17    19   ar
    14    19    20   ar
    15    20    21   ar
    16    21    22   ar
    17    22    23    1
    18    23    24    1
    19    23    25    1
    20    23    26    1
    21     5     1    1
    22     1     2    2
    23     1     3   am
    24     3    27    1
    25    27    28    1
    26    28    29   ar
    27    29    30   ar
    28    30    31   ar
    29    31    32   ar
    30    32    33   ar
    31    33    34   ar
    32    34    35   ar
    33    35    36   ar
    34    36    37    1
    35    37    40    1
    36    40    41   ar
    37    41    42   ar
    38    42    43   ar
    39    43    44   ar
    40    44    45   ar
    41    37    38    1
    42    38    39    1
    43    22    16   ar
    44    36    28   ar
    45    39    37    1
    46    35    30   ar
    47    45    40   ar
    48     8     9    1
    49     3     4    1
@<TRIPOS>MOLECULE
*****
 45 49 0 0 0
SMALL
GASTEIGER

@<TRIPOS>ATOM
      1 C          63.2282   87.1529   12.9418 C.2     1  UNL1        0.2411
      2 O          63.6654   86.9904   13.8083 O.2     1  UNL1       -0.2733
      3 N          63.2594   88.5952   12.5310 N.am    1  UNL1       -0.2966
      4 H          62.8506   88.8736   11.6797 H       1  UNL1        0.1499
      5 C          62.5741   86.1347   12.0555 C.3     1  UNL1        0.1555
      6 C          63.4284   83.7396   12.5884 C.2     1  UNL1        0.4017
      7 O          62.7791   83.8085   13.9388 O.2     1  UNL1       -0.2264
      8 N          63.3259   84.9027   11.6467 N.am    1  UNL1       -0.2637
      9 H          63.7520   84.8575   10.7604 H       1  UNL1        0.1532
     10 O          64.1802   82.5077   12.1796 O.3     1  UNL1       -0.4419
     11 C          62.9297   80.8051   12.3727 C.3     1  UNL1        0.0437
     12 C          63.5597   81.5334   11.2227 C.3     1  UNL1        0.1378
     13 C          64.1897   82.2618   10.0727 C.3     1  UNL1        0.0437
     14 C          62.9391   80.5591   10.2657 C.3     1  UNL1        0.0437
     15 C          61.1683   86.3484   11.5780 C.3     1  UNL1        0.0576
     16 C          60.8320   87.5547   10.7523 C.ar    1  UNL1        0.0113
     17 C          60.2972   88.7906   11.4131 C.ar    1  UNL1        0.1362
     18 F          60.1278   88.9226   12.3735 F       1  UNL1       -0.2045
     19 C          59.9609   89.9968   10.5874 C.ar    1  UNL1        0.0293
     20 C          60.1593   89.9672    9.1009 C.ar    1  UNL1        0.0022
     21 C          60.6940   88.7314    8.4401 C.ar    1  UNL1        0.0037
     22 C          61.0304   87.5251    9.2658 C.ar    1  UNL1        0.0697
     23 C          61.5651   86.2892    8.6050 C.3     1  UNL1        0.4184
     24 F          62.0999   85.0534    7.9442 F       1  UNL1       -0.1659
     25 F          62.9662   86.7745    8.8312 F       1  UNL1       -0.1659
     26 F          60.1640   85.8039    8.3787 F       1  UNL1       -0.1659
     27 C          63.9134   89.6135   13.4172 C.3     1  UNL1        0.1543
     28 C          64.4473   90.8864   12.8301 C.ar    1  UNL1        0.1417
     29 N          64.4022   91.2766   11.3825 N.ar    1  UNL1       -0.2276
     30 C          65.0470   92.6240   11.2452 C.ar    1  UNL1        0.1167
     31 C          65.2875   93.5051   10.0554 C.ar    1  UNL1        0.0238
     32 C          65.9716   94.8287   10.2284 C.ar    1  UNL1        0.0223
     33 C          66.4152   95.2713   11.5913 C.ar    1  UNL1        0.1006
     34 N          66.1747   94.3902   12.7811 N.ar    1  UNL1       -0.2252
     35 C          65.4906   93.0665   12.6081 C.ar    1  UNL1        0.1626
     36 N          65.1199   91.9926   13.5876 N.ar    1  UNL1       -0.2990
     37 C          65.3769   92.0202   15.0652 C.3     1  UNL1        0.0898
     38 C          65.1238   91.9412   16.5415 C.3     1  UNL1        0.0273
     39 C          63.9977   91.7232   15.5750 C.3     1  UNL1        0.0273
     40 C          66.8452   92.3267   15.0686 C.ar    1  UNL1       -0.0037
     41 C          67.7612   91.6190   14.1147 C.ar    1  UNL1       -0.0025
     42 C          69.2296   91.9255   14.1181 C.ar    1  UNL1       -0.0003
     43 C          69.7818   92.9397   15.0754 C.ar    1  UNL1       -0.0000
     44 C          68.8657   93.6475   16.0293 C.ar    1  UNL1       -0.0003
     45 C          67.3974   93.3409   16.0259 C.ar    1  UNL1       -0.0025
@<TRIPOS>BOND
     1    11    12    1
     2    12    13    1
     3    12    14    1
     4    12    10    1
     5    10     6    1
     6     6     7    2
     7     6     8   am
     8     8     5    1
     9     5    15    1
    10    15    16    1
    11    16    17   ar
    12    17    18    1
    13    17    19   ar
    14    19    20   ar
    15    20    21   ar
    16    21    22   ar
    17    22    23    1
    18    23    24    1
    19    23    25    1
    20    23    26    1
    21     5     1    1
    22     1     2    2
    23     1     3   am
    24     3    27    1
    25    27    28    1
    26    28    29   ar
    27    29    30   ar
    28    30    31   ar
    29    31    32   ar
    30    32    33   ar
    31    33    34   ar
    32    34    35   ar
    33    35    36   ar
    34    36    37    1
    35    37    40    1
    36    40    41   ar
    37    41    42   ar
    38    42    43   ar
    39    43    44   ar
    40    44    45   ar
    41    37    38    1
    42    38    39    1
    43    22    16   ar
    44    36    28   ar
    45    39    37    1
    46    35    30   ar
    47    45    40   ar
    48     8     9    1
    49     3     4    1
@<TRIPOS>MOLECULE
*****
 45 49 0 0 0
SMALL
GASTEIGER

@<TRIPOS>ATOM
      1 C          62.5324   90.2532    9.7690 C.2     1  UNL1        0.2411
      2 O          63.3059   89.8551    9.3088 O.2     1  UNL1       -0.2733
      3 N          62.8520   91.5630   10.4265 N.am    1  UNL1       -0.2966
      4 H          62.1517   92.0515   10.9167 H       1  UNL1        0.1499
      5 C          61.1459   89.6877    9.8584 C.3     1  UNL1        0.1555
      6 C          59.7773   89.0366    7.7482 C.2     1  UNL1        0.4017
      7 O          60.4480   87.6950    7.7271 O.2     1  UNL1       -0.2264
      8 N          60.1263   90.0329    8.8139 N.am    1  UNL1       -0.2637
      9 H          59.6861   90.9134    8.8277 H       1  UNL1        0.1532
     10 O          58.7577   89.3819    6.7036 O.3     1  UNL1       -0.4419
     11 C          57.5380   90.7543    5.6413 C.3     1  UNL1        0.0437
     12 C          59.0140   90.5105    5.7495 C.3     1  UNL1        0.1378
     13 C          60.4901   90.2668    5.8578 C.3     1  UNL1        0.0437
     14 C          59.2703   91.6393    4.7954 C.3     1  UNL1        0.0437
     15 C          60.7791   88.7769   10.9924 C.3     1  UNL1        0.0576
     16 C          61.8512   88.2054   11.8723 C.ar    1  UNL1        0.0113
     17 C          62.4851   89.0573   12.9318 C.ar    1  UNL1        0.1362
     18 F          62.2785   89.9970   13.1384 F       1  UNL1       -0.2045
     19 C          63.5571   88.4858   13.8116 C.ar    1  UNL1        0.0293
     20 C          63.9953   87.0625   13.6319 C.ar    1  UNL1        0.0022
     21 C          63.3615   86.2107   12.5724 C.ar    1  UNL1        0.0037
     22 C          62.2895   86.7822   11.6926 C.ar    1  UNL1        0.0697
     23 C          61.6556   85.9304   10.6330 C.3     1  UNL1        0.4184
     24 F          61.0216   85.0786    9.5735 F       1  UNL1       -0.1659
     25 F          60.3065   86.4689   11.0072 F       1  UNL1       -0.1659
     26 F          63.0046   85.3919   10.2587 F       1  UNL1       -0.1659
     27 C          64.2384   92.1285   10.3371 C.3     1  UNL1        0.1543
     28 C          65.0909   92.2223   11.5677 C.ar    1  UNL1        0.1417
     29 N          64.6187   92.0589   12.9820 N.ar    1  UNL1       -0.2276
     30 C          65.8012   92.2316   13.8885 C.ar    1  UNL1        0.1167
     31 C          65.9380   92.1778   15.3813 C.ar    1  UNL1        0.0238
     32 C          67.2778   92.3942   16.0199 C.ar    1  UNL1        0.0223
     33 C          68.4809   92.6645   15.1658 C.ar    1  UNL1        0.1006
     34 N          68.3442   92.7183   13.6731 N.ar    1  UNL1       -0.2252
     35 C          67.0044   92.5019   13.0344 C.ar    1  UNL1        0.1626
     36 N          66.5653   92.4962   11.6001 N.ar    1  UNL1       -0.2990
     37 C          67.4461   92.7242   10.4076 C.3     1  UNL1        0.0898
     38 C          68.4843   92.4754    9.3539 C.3     1  UNL1        0.0273
     39 C          68.2053   91.4305   10.3932 C.3     1  UNL1        0.0273
     40 C          66.9929   94.0970   10.0077 C.ar    1  UNL1       -0.0037
     41 C          67.3767   94.6530    8.6685 C.ar    1  UNL1       -0.0025
     42 C          66.9235   96.0259    8.2685 C.ar    1  UNL1       -0.0003
     43 C          66.0866   96.8427    9.2079 C.ar    1  UNL1       -0.0000
     44 C          65.7029   96.2866   10.5472 C.ar    1  UNL1       -0.0003
     45 C          66.1560   94.9138   10.9471 C.ar    1  UNL1       -0.0025
@<TRIPOS>BOND
     1    11    12    1
     2    12    13    1
     3    12    14    1
     4    12    10    1
     5    10     6    1
     6     6     7    2
     7     6     8   am
     8     8     5    1
     9     5    15    1
    10    15    16    1
    11    16    17   ar
    12    17    18    1
    13    17    19   ar
    14    19    20   ar
    15    20    21   ar
    16    21    22   ar
    17    22    23    1
    18    23    24    1
    19    23    25    1
    20    23    26    1
    21     5     1    1
    22     1     2    2
    23     1     3   am
    24     3    27    1
    25    27    28    1
    26    28    29   ar
    27    29    30   ar
    28    30    31   ar
    29    31    32   ar
    30    32    33   ar
    31    33    34   ar
    32    34    35   ar
    33    35    36   ar
    34    36    37    1
    35    37    40    1
    36    40    41   ar
    37    41    42   ar
    38    42    43   ar
    39    43    44   ar
    40    44    45   ar
    41    37    38    1
    42    38    39    1
    43    22    16   ar
    44    36    28   ar
    45    39    37    1
    46    35    30   ar
    47    45    40   ar
    48     8     9    1
    49     3     4    1
