@<TRIPOS>MOLECULE
*****
 32 35 0 0 0
SMALL
GASTEIGER

@<TRIPOS>ATOM
      1 N          64.3370   87.4178   14.5969 N.am    1  UNL1       -0.2806
      2 C          63.8829   88.3848   13.5440 C.2     1  UNL1        0.2495
      3 O          62.8876   87.9529   12.5082 O.2     1  UNL1       -0.2698
      4 H          64.9903   87.7013   15.2767 H       1  UNL1        0.1552
      5 C          63.0120   86.3522   17.0685 C.3     1  UNL1        0.0323
      6 C          63.1334   85.4861   15.8498 C.ar    1  UNL1       -0.0087
      7 C          62.5924   84.0872   15.8669 C.ar    1  UNL1       -0.0072
      8 C          62.7138   83.2211   14.6482 C.ar    1  UNL1       -0.0192
      9 C          62.1727   81.8222   14.6654 C.3     1  UNL1        0.0311
     10 C          63.3763   83.7539   13.4125 C.ar    1  UNL1        0.0312
     11 C          63.9173   85.1528   13.3953 C.ar    1  UNL1        0.0170
     12 C          63.7959   86.0189   14.6140 C.ar    1  UNL1        0.0466
     13 C          63.4977   82.8878   12.1938 C.ar    1  UNL1        0.1403
     14 N          64.4868   83.0662   11.0803 N.ar    1  UNL1       -0.2254
     15 C          64.2518   81.9799   10.0730 C.ar    1  UNL1        0.1189
     16 C          63.1173   81.1302   10.5639 C.ar    1  UNL1        0.0945
     17 N          62.6513   81.6913   11.8746 N.ar    1  UNL1       -0.3361
     18 H          61.9186   81.3365   12.4282 H       1  UNL1        0.1674
     19 C          64.4240   89.7837   13.5268 C.ar    1  UNL1        0.0539
     20 C          64.0215   90.7302   12.4349 C.ar    1  UNL1        0.0076
     21 C          64.5625   92.1291   12.4177 C.ar    1  UNL1        0.0371
     22 C          65.5061   92.5815   13.4924 C.ar    1  UNL1        0.1391
     23 C          65.9086   91.6350   14.5843 C.ar    1  UNL1        0.0371
     24 C          65.3675   90.2362   14.6015 C.ar    1  UNL1        0.0076
     25 O          66.0472   93.9805   13.4753 O.3     1  UNL1       -0.4690
     26 C          66.2079   94.7065   12.1726 C.3     1  UNL1        0.2508
     27 C          66.9598   94.0652   11.0442 C.ar    1  UNL1        0.1026
     28 C          67.0684   94.7648    9.7218 C.ar    1  UNL1        0.0185
     29 C          67.8203   94.1235    8.5935 C.ar    1  UNL1        0.0029
     30 C          68.4638   92.7824    8.7875 C.ar    1  UNL1        0.0207
     31 C          68.3553   92.0828   10.1099 C.ar    1  UNL1        0.0986
     32 N          67.6032   92.7242   11.2383 N.ar    1  UNL1       -0.2445
@<TRIPOS>BOND
     1     5     6    1
     2     6     7   ar
     3     7     8   ar
     4     8     9    1
     5     8    10   ar
     6    10    13    1
     7    13    14   ar
     8    14    15   ar
     9    15    16   ar
    10    16    17   ar
    11    10    11   ar
    12    11    12   ar
    13    12     1    1
    14     1     2   am
    15     2     3    2
    16     2    19    1
    17    19    20   ar
    18    20    21   ar
    19    21    22   ar
    20    22    25    1
    21    25    26    1
    22    26    27    1
    23    27    28   ar
    24    28    29   ar
    25    29    30   ar
    26    30    31   ar
    27    31    32   ar
    28    22    23   ar
    29    23    24   ar
    30    12     6   ar
    31    24    19   ar
    32    17    13   ar
    33    32    27   ar
    34    17    18    1
    35     1     4    1
@<TRIPOS>MOLECULE
*****
 32 35 0 0 0
SMALL
GASTEIGER

@<TRIPOS>ATOM
      1 N          62.1533   85.8800   10.1722 N.am    1  UNL1       -0.2806
      2 C          61.0858   86.9113   10.3885 C.2     1  UNL1        0.2495
      3 O          60.6315   87.2403   11.7797 O.2     1  UNL1       -0.2698
      4 H          62.4514   85.6641    9.2592 H       1  UNL1        0.1552
      5 C          63.7071   83.3468    9.7619 C.3     1  UNL1        0.0323
      6 C          63.5435   83.9110   11.1421 C.ar    1  UNL1       -0.0087
      7 C          64.1567   83.2087   12.3170 C.ar    1  UNL1       -0.0072
      8 C          63.9931   83.7729   13.6972 C.ar    1  UNL1       -0.0192
      9 C          64.6064   83.0705   14.8722 C.3     1  UNL1        0.0311
     10 C          63.2162   85.0395   13.9024 C.ar    1  UNL1        0.0312
     11 C          62.6029   85.7418   12.7274 C.ar    1  UNL1        0.0170
     12 C          62.7666   85.1776   11.3473 C.ar    1  UNL1        0.0466
     13 C          63.0525   85.6038   15.2825 C.ar    1  UNL1        0.1403
     14 N          62.1863   85.0388   16.3690 N.ar    1  UNL1       -0.2254
     15 C          62.3248   85.9179   17.5765 C.ar    1  UNL1        0.1189
     16 C          63.2766   87.0262   17.2363 C.ar    1  UNL1        0.0945
     17 N          63.7264   86.8320   15.8186 N.ar    1  UNL1       -0.3361
     18 H          64.3537   87.4094   15.3263 H       1  UNL1        0.1674
     19 C          60.4724   87.6137    9.2135 C.ar    1  UNL1        0.0539
     20 C          60.6503   89.0939    9.0480 C.ar    1  UNL1        0.0076
     21 C          60.0371   89.7963    7.8731 C.ar    1  UNL1        0.0371
     22 C          59.2459   89.0185    6.8636 C.ar    1  UNL1        0.1391
     23 C          59.0680   87.5383    7.0291 C.ar    1  UNL1        0.0371
     24 C          59.6813   86.8359    8.2040 C.ar    1  UNL1        0.0076
     25 O          58.6326   89.7209    5.6886 O.3     1  UNL1       -0.4690
     26 C          58.8149   91.2003    5.5204 C.3     1  UNL1        0.2508
     27 C          59.7515   91.7263    4.4735 C.ar    1  UNL1        0.1026
     28 C          61.1784   91.2647    4.4435 C.ar    1  UNL1        0.0185
     29 C          62.1150   91.7907    3.3966 C.ar    1  UNL1        0.0029
     30 C          61.6247   92.7784    2.3796 C.ar    1  UNL1        0.0207
     31 C          60.1978   93.2400    2.4096 C.ar    1  UNL1        0.0986
     32 N          59.2612   92.7139    3.4566 N.ar    1  UNL1       -0.2445
@<TRIPOS>BOND
     1     5     6    1
     2     6     7   ar
     3     7     8   ar
     4     8     9    1
     5     8    10   ar
     6    10    13    1
     7    13    14   ar
     8    14    15   ar
     9    15    16   ar
    10    16    17   ar
    11    10    11   ar
    12    11    12   ar
    13    12     1    1
    14     1     2   am
    15     2     3    2
    16     2    19    1
    17    19    20   ar
    18    20    21   ar
    19    21    22   ar
    20    22    25    1
    21    25    26    1
    22    26    27    1
    23    27    28   ar
    24    28    29   ar
    25    29    30   ar
    26    30    31   ar
    27    31    32   ar
    28    22    23   ar
    29    23    24   ar
    30    12     6   ar
    31    24    19   ar
    32    17    13   ar
    33    32    27   ar
    34    17    18    1
    35     1     4    1
@<TRIPOS>MOLECULE
*****
 32 35 0 0 0
SMALL
GASTEIGER

@<TRIPOS>ATOM
      1 N          62.1109   86.6715   10.5684 N.am    1  UNL1       -0.2806
      2 C          60.8291   87.4495   10.6071 C.2     1  UNL1        0.2495
      3 O          60.0812   87.5990   11.8987 O.2     1  UNL1       -0.2698
      4 H          62.6017   86.5733    9.7207 H       1  UNL1        0.1552
      5 C          63.5271   88.3570   12.6064 C.3     1  UNL1        0.0323
      6 C          63.3529   86.8856   12.8403 C.ar    1  UNL1       -0.0087
      7 C          63.8868   86.2570   14.0932 C.ar    1  UNL1       -0.0072
      8 C          63.7127   84.7856   14.3271 C.ar    1  UNL1       -0.0192
      9 C          64.2466   84.1570   15.5800 C.3     1  UNL1        0.0311
     10 C          63.0046   83.9428   13.3081 C.ar    1  UNL1        0.0312
     11 C          62.4707   84.5715   12.0552 C.ar    1  UNL1        0.0170
     12 C          62.6448   86.0428   11.8213 C.ar    1  UNL1        0.0466
     13 C          62.8305   82.4715   13.5420 C.ar    1  UNL1        0.1403
     14 N          61.5885   81.8002   14.0489 N.ar    1  UNL1       -0.2254
     15 C          61.8581   80.3269   14.1302 C.ar    1  UNL1        0.1189
     16 C          63.2668   80.0876   13.6737 C.ar    1  UNL1        0.0945
     17 N          63.8677   81.4130   13.3101 N.ar    1  UNL1       -0.3361
     18 H          64.7823   81.5620   12.9777 H       1  UNL1        0.1674
     19 C          60.2951   88.0781    9.3542 C.ar    1  UNL1        0.0539
     20 C          60.5268   89.5362    9.0891 C.ar    1  UNL1        0.0076
     21 C          59.9929   90.1648    7.8362 C.ar    1  UNL1        0.0371
     22 C          59.2273   89.3354    6.8484 C.ar    1  UNL1        0.1391
     23 C          58.9956   87.8773    7.1135 C.ar    1  UNL1        0.0371
     24 C          59.5295   87.2486    8.3664 C.ar    1  UNL1        0.0076
     25 O          58.6933   89.9640    5.5955 O.3     1  UNL1       -0.4690
     26 C          58.8997   91.4283    5.3443 C.3     1  UNL1        0.2508
     27 C          59.8913   91.8800    4.3136 C.ar    1  UNL1        0.1026
     28 C          61.2880   91.3331    4.3262 C.ar    1  UNL1        0.0185
     29 C          62.2797   91.7849    3.2954 C.ar    1  UNL1        0.0029
     30 C          61.8747   92.7835    2.2519 C.ar    1  UNL1        0.0207
     31 C          60.4780   93.3304    2.2393 C.ar    1  UNL1        0.0986
     32 N          59.4863   92.8786    3.2702 N.ar    1  UNL1       -0.2445
@<TRIPOS>BOND
     1     5     6    1
     2     6     7   ar
     3     7     8   ar
     4     8     9    1
     5     8    10   ar
     6    10    13    1
     7    13    14   ar
     8    14    15   ar
     9    15    16   ar
    10    16    17   ar
    11    10    11   ar
    12    11    12   ar
    13    12     1    1
    14     1     2   am
    15     2     3    2
    16     2    19    1
    17    19    20   ar
    18    20    21   ar
    19    21    22   ar
    20    22    25    1
    21    25    26    1
    22    26    27    1
    23    27    28   ar
    24    28    29   ar
    25    29    30   ar
    26    30    31   ar
    27    31    32   ar
    28    22    23   ar
    29    23    24   ar
    30    12     6   ar
    31    24    19   ar
    32    17    13   ar
    33    32    27   ar
    34    17    18    1
    35     1     4    1
@<TRIPOS>MOLECULE
*****
 32 35 0 0 0
SMALL
GASTEIGER

@<TRIPOS>ATOM
      1 N          62.9372   93.2908    1.5813 N.am    1  UNL1       -0.2806
      2 C          61.4638   93.4103    1.8355 C.2     1  UNL1        0.2495
      3 O          60.6229   94.2999    0.9685 O.2     1  UNL1       -0.2698
      4 H          63.4891   92.7070    2.1503 H       1  UNL1        0.1552
      5 C          64.4040   95.8440    2.1557 C.3     1  UNL1        0.0323
      6 C          64.3032   95.3374    0.7474 C.ar    1  UNL1       -0.0087
      7 C          64.9358   96.1074   -0.3737 C.ar    1  UNL1       -0.0072
      8 C          64.8350   95.6009   -1.7820 C.ar    1  UNL1       -0.0192
      9 C          65.4676   96.3710   -2.9031 C.3     1  UNL1        0.0311
     10 C          64.1016   94.3243   -2.0692 C.ar    1  UNL1        0.0312
     11 C          63.4690   93.5543   -0.9481 C.ar    1  UNL1        0.0170
     12 C          63.5698   94.0609    0.4602 C.ar    1  UNL1        0.0466
     13 C          64.0008   93.8178   -3.4774 C.ar    1  UNL1        0.1403
     14 N          63.0788   94.3408   -4.5387 N.ar    1  UNL1       -0.2254
     15 C          63.3125   93.5456   -5.7889 C.ar    1  UNL1        0.1189
     16 C          64.3789   92.5310   -5.5003 C.ar    1  UNL1        0.0945
     17 N          64.8043   92.6992   -4.0717 N.ar    1  UNL1       -0.3361
     18 H          65.4904   92.1686   -3.6060 H       1  UNL1        0.1674
     19 C          60.8311   92.6403    2.9566 C.ar    1  UNL1        0.0539
     20 C          59.3736   92.8207    3.2615 C.ar    1  UNL1        0.0076
     21 C          58.7410   92.0507    4.3826 C.ar    1  UNL1        0.0371
     22 C          59.5659   91.1003    5.1987 C.ar    1  UNL1        0.1391
     23 C          61.0234   90.9198    4.8938 C.ar    1  UNL1        0.0371
     24 C          61.6561   91.6898    3.7727 C.ar    1  UNL1        0.0076
     25 O          58.9332   90.3302    6.3198 O.3     1  UNL1       -0.4690
     26 C          59.2182   88.8660    6.4784 C.3     1  UNL1        0.2508
     27 C          59.7649   88.3444    7.7741 C.ar    1  UNL1        0.1026
     28 C          60.0324   86.8777    7.9389 C.ar    1  UNL1        0.0185
     29 C          60.5792   86.3560    9.2346 C.ar    1  UNL1        0.0029
     30 C          60.8585   87.3011   10.3656 C.ar    1  UNL1        0.0207
     31 C          60.5909   88.7678   10.2007 C.ar    1  UNL1        0.0986
     32 N          60.0441   89.2894    8.9049 N.ar    1  UNL1       -0.2445
@<TRIPOS>BOND
     1     5     6    1
     2     6     7   ar
     3     7     8   ar
     4     8     9    1
     5     8    10   ar
     6    10    13    1
     7    13    14   ar
     8    14    15   ar
     9    15    16   ar
    10    16    17   ar
    11    10    11   ar
    12    11    12   ar
    13    12     1    1
    14     1     2   am
    15     2     3    2
    16     2    19    1
    17    19    20   ar
    18    20    21   ar
    19    21    22   ar
    20    22    25    1
    21    25    26    1
    22    26    27    1
    23    27    28   ar
    24    28    29   ar
    25    29    30   ar
    26    30    31   ar
    27    31    32   ar
    28    22    23   ar
    29    23    24   ar
    30    12     6   ar
    31    24    19   ar
    32    17    13   ar
    33    32    27   ar
    34    17    18    1
    35     1     4    1
@<TRIPOS>MOLECULE
*****
 32 35 0 0 0
SMALL
GASTEIGER

@<TRIPOS>ATOM
      1 N          63.5802   86.2516   13.5654 N.am    1  UNL1       -0.2806
      2 C          62.8283   87.1364   12.6159 C.2     1  UNL1        0.2495
      3 O          61.6329   86.6046   11.8822 O.2     1  UNL1       -0.2698
      4 H          64.3648   86.6006   14.0469 H       1  UNL1        0.1552
      5 C          62.4788   85.4135   16.2271 C.3     1  UNL1        0.0323
      6 C          62.5862   84.4159   15.1121 C.ar    1  UNL1       -0.0087
      7 C          62.1428   82.9993   15.3279 C.ar    1  UNL1       -0.0072
      8 C          62.2502   82.0017   14.2129 C.ar    1  UNL1       -0.0192
      9 C          61.8068   80.5850   14.4287 C.3     1  UNL1        0.0311
     10 C          62.8009   82.4207   12.8821 C.ar    1  UNL1        0.0312
     11 C          63.2442   83.8373   12.6662 C.ar    1  UNL1        0.0170
     12 C          63.1369   84.8349   13.7813 C.ar    1  UNL1        0.0466
     13 C          62.9082   81.4231   11.7670 C.ar    1  UNL1        0.1403
     14 N          63.2942   81.7237   10.3491 N.ar    1  UNL1       -0.2254
     15 C          63.2730   80.4361    9.5799 C.ar    1  UNL1        0.1189
     16 C          62.8738   79.3397   10.5225 C.ar    1  UNL1        0.0945
     17 N          62.6484   79.9496   11.8742 N.ar    1  UNL1       -0.3361
     18 H          62.3775   79.4676   12.6887 H       1  UNL1        0.1674
     19 C          63.2716   88.5531   12.4000 C.ar    1  UNL1        0.0539
     20 C          62.9074   89.2681   11.1327 C.ar    1  UNL1        0.0076
     21 C          63.3508   90.6847   10.9168 C.ar    1  UNL1        0.0371
     22 C          64.1583   91.3863   11.9682 C.ar    1  UNL1        0.1391
     23 C          64.5225   90.6713   13.2356 C.ar    1  UNL1        0.0371
     24 C          64.0792   89.2547   13.4515 C.ar    1  UNL1        0.0076
     25 O          64.6017   92.8029   11.7524 O.3     1  UNL1       -0.4690
     26 C          66.0640   93.1366   11.7343 C.3     1  UNL1        0.2508
     27 C          66.8881   92.9641   12.9757 C.ar    1  UNL1        0.1026
     28 C          66.5245   93.7077   14.2266 C.ar    1  UNL1        0.0185
     29 C          67.3486   93.5351   15.4680 C.ar    1  UNL1        0.0029
     30 C          68.5362   92.6189   15.4586 C.ar    1  UNL1        0.0207
     31 C          68.8997   91.8752   14.2076 C.ar    1  UNL1        0.0986
     32 N          68.0756   92.0478   12.9662 N.ar    1  UNL1       -0.2445
@<TRIPOS>BOND
     1     5     6    1
     2     6     7   ar
     3     7     8   ar
     4     8     9    1
     5     8    10   ar
     6    10    13    1
     7    13    14   ar
     8    14    15   ar
     9    15    16   ar
    10    16    17   ar
    11    10    11   ar
    12    11    12   ar
    13    12     1    1
    14     1     2   am
    15     2     3    2
    16     2    19    1
    17    19    20   ar
    18    20    21   ar
    19    21    22   ar
    20    22    25    1
    21    25    26    1
    22    26    27    1
    23    27    28   ar
    24    28    29   ar
    25    29    30   ar
    26    30    31   ar
    27    31    32   ar
    28    22    23   ar
    29    23    24   ar
    30    12     6   ar
    31    24    19   ar
    32    17    13   ar
    33    32    27   ar
    34    17    18    1
    35     1     4    1
@<TRIPOS>MOLECULE
*****
 32 35 0 0 0
SMALL
GASTEIGER

@<TRIPOS>ATOM
      1 N          62.7640   85.7793   13.2083 N.am    1  UNL1       -0.2806
      2 C          63.8477   86.5616   13.8892 C.2     1  UNL1        0.2495
      3 O          64.7717   85.8798   14.8542 O.2     1  UNL1       -0.2698
      4 H          62.1576   86.2269   12.5749 H       1  UNL1        0.1552
      5 C          62.1279   84.8514   15.9894 C.3     1  UNL1        0.0323
      6 C          62.2863   83.8512   14.8828 C.ar    1  UNL1       -0.0087
      7 C          62.1267   82.3870   15.1668 C.ar    1  UNL1       -0.0072
      8 C          62.2852   81.3868   14.0603 C.ar    1  UNL1       -0.0192
      9 C          62.1256   79.9225   14.3444 C.3     1  UNL1        0.0311
     10 C          62.6033   81.8507   12.6698 C.ar    1  UNL1        0.0312
     11 C          62.7629   83.3148   12.3858 C.ar    1  UNL1        0.0170
     12 C          62.6044   84.3151   13.4923 C.ar    1  UNL1        0.0466
     13 C          62.7618   80.8504   11.5633 C.ar    1  UNL1        0.1403
     14 N          62.5470   79.3701   11.6754 N.ar    1  UNL1       -0.2254
     15 C          62.8154   78.7597   10.3318 C.ar    1  UNL1        0.1189
     16 C          63.1959   79.8627    9.3892 C.ar    1  UNL1        0.0945
     17 N          63.1628   81.1548   10.1503 N.ar    1  UNL1       -0.3361
     18 H          63.3682   82.0462    9.7864 H       1  UNL1        0.1674
     19 C          64.0073   88.0259   13.6051 C.ar    1  UNL1        0.0539
     20 C          64.7955   88.8904   14.5439 C.ar    1  UNL1        0.0076
     21 C          64.9552   90.3545   14.2599 C.ar    1  UNL1        0.0371
     22 C          64.3266   90.9542   13.0371 C.ar    1  UNL1        0.1391
     23 C          63.5383   90.0897   12.0984 C.ar    1  UNL1        0.0371
     24 C          63.3787   88.6255   12.3824 C.ar    1  UNL1        0.0076
     25 O          64.4862   92.4184   12.7531 O.3     1  UNL1       -0.4690
     26 C          65.8464   93.0486   12.8051 C.3     1  UNL1        0.2508
     27 C          66.5662   93.3851   11.5328 C.ar    1  UNL1        0.1026
     28 C          67.2730   92.3086   10.7637 C.ar    1  UNL1        0.0185
     29 C          67.9927   92.6452    9.4914 C.ar    1  UNL1        0.0029
     30 C          68.0058   94.0583    8.9883 C.ar    1  UNL1        0.0207
     31 C          67.2990   95.1348    9.7575 C.ar    1  UNL1        0.0986
     32 N          66.5792   94.7982   11.0298 N.ar    1  UNL1       -0.2445
@<TRIPOS>BOND
     1     5     6    1
     2     6     7   ar
     3     7     8   ar
     4     8     9    1
     5     8    10   ar
     6    10    13    1
     7    13    14   ar
     8    14    15   ar
     9    15    16   ar
    10    16    17   ar
    11    10    11   ar
    12    11    12   ar
    13    12     1    1
    14     1     2   am
    15     2     3    2
    16     2    19    1
    17    19    20   ar
    18    20    21   ar
    19    21    22   ar
    20    22    25    1
    21    25    26    1
    22    26    27    1
    23    27    28   ar
    24    28    29   ar
    25    29    30   ar
    26    30    31   ar
    27    31    32   ar
    28    22    23   ar
    29    23    24   ar
    30    12     6   ar
    31    24    19   ar
    32    17    13   ar
    33    32    27   ar
    34    17    18    1
    35     1     4    1
@<TRIPOS>MOLECULE
*****
 32 35 0 0 0
SMALL
GASTEIGER

@<TRIPOS>ATOM
      1 N          61.7478   92.6682    1.7299 N.am    1  UNL1       -0.2806
      2 C          60.6437   93.1169    2.6407 C.2     1  UNL1        0.2495
      3 O          60.0391   94.4792    2.4719 O.2     1  UNL1       -0.2698
      4 H          62.1446   91.7741    1.8407 H       1  UNL1        0.1552
      5 C          64.3400   94.1355    2.0867 C.3     1  UNL1        0.0323
      6 C          63.5434   94.3155    0.8286 C.ar    1  UNL1       -0.0087
      7 C          64.0428   95.2291   -0.2511 C.ar    1  UNL1       -0.0072
      8 C          63.2462   95.4091   -1.5093 C.ar    1  UNL1       -0.0192
      9 C          63.7457   96.3228   -2.5890 C.3     1  UNL1        0.0311
     10 C          61.9501   94.6755   -1.6877 C.ar    1  UNL1        0.0312
     11 C          61.4507   93.7619   -0.6080 C.ar    1  UNL1        0.0170
     12 C          62.2473   93.5819    0.6501 C.ar    1  UNL1        0.0466
     13 C          61.1535   94.8555   -2.9459 C.ar    1  UNL1        0.1403
     14 N          61.4449   94.2192   -4.2726 N.ar    1  UNL1       -0.2254
     15 C          60.3971   94.6738   -5.2449 C.ar    1  UNL1        0.1189
     16 C          59.4580   95.5911   -4.5191 C.ar    1  UNL1        0.0945
     17 N          59.9255   95.7034   -3.0983 N.ar    1  UNL1       -0.3361
     18 H          59.5010   96.2395   -2.3900 H       1  UNL1        0.1674
     19 C          60.1442   92.2032    3.7204 C.ar    1  UNL1        0.0539
     20 C          58.6836   92.1725    4.0607 C.ar    1  UNL1        0.0076
     21 C          58.1841   91.2589    5.1403 C.ar    1  UNL1        0.0371
     22 C          59.1451   90.3760    5.8798 C.ar    1  UNL1        0.1391
     23 C          60.6057   90.4067    5.5395 C.ar    1  UNL1        0.0371
     24 C          61.1052   91.3203    4.4599 C.ar    1  UNL1        0.0076
     25 O          58.6456   89.4623    6.9595 O.3     1  UNL1       -0.4690
     26 C          59.2738   88.1137    7.1508 C.3     1  UNL1        0.2508
     27 C          60.0379   87.8135    8.4062 C.ar    1  UNL1        0.1026
     28 C          60.4943   86.4130    8.6897 C.ar    1  UNL1        0.0185
     29 C          61.2583   86.1128    9.9451 C.ar    1  UNL1        0.0029
     30 C          61.5660   87.2131   10.9171 C.ar    1  UNL1        0.0207
     31 C          61.1096   88.6136   10.6336 C.ar    1  UNL1        0.0986
     32 N          60.3455   88.9137    9.3781 N.ar    1  UNL1       -0.2445
@<TRIPOS>BOND
     1     5     6    1
     2     6     7   ar
     3     7     8   ar
     4     8     9    1
     5     8    10   ar
     6    10    13    1
     7    13    14   ar
     8    14    15   ar
     9    15    16   ar
    10    16    17   ar
    11    10    11   ar
    12    11    12   ar
    13    12     1    1
    14     1     2   am
    15     2     3    2
    16     2    19    1
    17    19    20   ar
    18    20    21   ar
    19    21    22   ar
    20    22    25    1
    21    25    26    1
    22    26    27    1
    23    27    28   ar
    24    28    29   ar
    25    29    30   ar
    26    30    31   ar
    27    31    32   ar
    28    22    23   ar
    29    23    24   ar
    30    12     6   ar
    31    24    19   ar
    32    17    13   ar
    33    32    27   ar
    34    17    18    1
    35     1     4    1
@<TRIPOS>MOLECULE
*****
 32 35 0 0 0
SMALL
GASTEIGER

@<TRIPOS>ATOM
      1 N          59.4218   92.4327    1.3192 N.am    1  UNL1       -0.2806
      2 C          59.6236   92.9403    2.7161 C.2     1  UNL1        0.2495
      3 O          59.9137   94.3930    2.9517 O.2     1  UNL1       -0.2698
      4 H          59.2314   91.4792    1.1646 H       1  UNL1        0.1552
      5 C          62.1029   93.2305    0.2350 C.3     1  UNL1        0.0323
      6 C          60.8507   93.7766   -0.3844 C.ar    1  UNL1       -0.0087
      7 C          60.9390   94.7217   -1.5459 C.ar    1  UNL1       -0.0072
      8 C          59.6868   95.2679   -2.1653 C.ar    1  UNL1       -0.0192
      9 C          59.7751   96.2130   -3.3268 C.3     1  UNL1        0.0311
     10 C          58.3462   94.8690   -1.6232 C.ar    1  UNL1        0.0312
     11 C          58.2579   93.9240   -0.4617 C.ar    1  UNL1        0.0170
     12 C          59.5102   93.3778    0.1576 C.ar    1  UNL1        0.0466
     13 C          57.0940   95.4152   -2.2426 C.ar    1  UNL1        0.1403
     14 N          56.4228   96.7071   -1.8816 N.ar    1  UNL1       -0.2254
     15 C          55.2071   96.8558   -2.7476 C.ar    1  UNL1        0.1189
     16 C          55.1270   95.6557   -3.6439 C.ar    1  UNL1        0.0945
     17 N          56.2932   94.7654   -3.3318 N.ar    1  UNL1       -0.3361
     18 H          56.4971   93.9055   -3.7656 H       1  UNL1        0.1674
     19 C          59.5352   91.9951    3.8776 C.ar    1  UNL1        0.0539
     20 C          58.2094   91.7239    4.5246 C.ar    1  UNL1        0.0076
     21 C          58.1210   90.7788    5.6861 C.ar    1  UNL1        0.0371
     22 C          59.3584   90.1050    6.2005 C.ar    1  UNL1        0.1391
     23 C          60.6842   90.3763    5.5535 C.ar    1  UNL1        0.0371
     24 C          60.7727   91.3213    4.3921 C.ar    1  UNL1        0.0076
     25 O          59.2701   89.1599    7.3620 O.3     1  UNL1       -0.4690
     26 C          60.0442   89.4386    8.6162 C.3     1  UNL1        0.2508
     27 C          60.7448   88.3202    9.3293 C.ar    1  UNL1        0.1026
     28 C          60.6080   86.9116    8.8321 C.ar    1  UNL1        0.0185
     29 C          61.3086   85.7933    9.5451 C.ar    1  UNL1        0.0029
     30 C          62.1460   86.0835   10.7554 C.ar    1  UNL1        0.0207
     31 C          62.2827   87.4921   11.2526 C.ar    1  UNL1        0.0986
     32 N          61.5821   88.6105   10.5395 N.ar    1  UNL1       -0.2445
@<TRIPOS>BOND
     1     5     6    1
     2     6     7   ar
     3     7     8   ar
     4     8     9    1
     5     8    10   ar
     6    10    13    1
     7    13    14   ar
     8    14    15   ar
     9    15    16   ar
    10    16    17   ar
    11    10    11   ar
    12    11    12   ar
    13    12     1    1
    14     1     2   am
    15     2     3    2
    16     2    19    1
    17    19    20   ar
    18    20    21   ar
    19    21    22   ar
    20    22    25    1
    21    25    26    1
    22    26    27    1
    23    27    28   ar
    24    28    29   ar
    25    29    30   ar
    26    30    31   ar
    27    31    32   ar
    28    22    23   ar
    29    23    24   ar
    30    12     6   ar
    31    24    19   ar
    32    17    13   ar
    33    32    27   ar
    34    17    18    1
    35     1     4    1
@<TRIPOS>MOLECULE
*****
 32 35 0 0 0
SMALL
GASTEIGER

@<TRIPOS>ATOM
      1 N          63.5114   88.3994   12.7308 N.am    1  UNL1       -0.2806
      2 C          64.0254   87.5011   13.8166 C.2     1  UNL1        0.2495
      3 O          65.0897   87.9903   14.7536 O.2     1  UNL1       -0.2698
      4 H          62.8129   88.0783   12.1158 H       1  UNL1        0.1552
      5 C          62.5487   90.1642   10.5040 C.3     1  UNL1        0.0323
      6 C          63.5804   90.6692   11.4686 C.ar    1  UNL1       -0.0087
      7 C          64.1307   92.0567   11.3199 C.ar    1  UNL1       -0.0072
      8 C          65.1623   92.5617   12.2845 C.ar    1  UNL1       -0.0192
      9 C          65.7127   93.9492   12.1357 C.3     1  UNL1        0.0311
     10 C          65.6437   91.6794   13.3979 C.ar    1  UNL1        0.0312
     11 C          65.0934   90.2920   13.5466 C.ar    1  UNL1        0.0170
     12 C          64.0617   89.7869   12.5820 C.ar    1  UNL1        0.0466
     13 C          66.6754   92.1845   14.3625 C.ar    1  UNL1        0.1403
     14 N          66.4150   92.6707   15.7574 N.ar    1  UNL1       -0.2254
     15 C          67.7273   93.0787   16.3587 C.ar    1  UNL1        0.1189
     16 C          68.7987   92.8447   15.3353 C.ar    1  UNL1        0.0945
     17 N          68.1486   92.2920   14.1016 N.ar    1  UNL1       -0.3361
     18 H          68.6082   92.0435   13.2672 H       1  UNL1        0.1674
     19 C          63.4751   86.1136   13.9654 C.ar    1  UNL1        0.0539
     20 C          62.9088   85.3997   12.7739 C.ar    1  UNL1        0.0076
     21 C          62.3585   84.0123   12.9227 C.ar    1  UNL1        0.0371
     22 C          62.3745   83.3388   14.2629 C.ar    1  UNL1        0.1391
     23 C          62.9408   84.0528   15.4543 C.ar    1  UNL1        0.0371
     24 C          63.4911   85.4402   15.3056 C.ar    1  UNL1        0.0076
     25 O          61.8242   81.9513   14.4117 O.3     1  UNL1       -0.4690
     26 C          62.6575   80.7678   14.0180 C.3     1  UNL1        0.2508
     27 C          62.7508   80.3623   12.5769 C.ar    1  UNL1        0.1026
     28 C          63.1115   81.3781   11.5338 C.ar    1  UNL1        0.0185
     29 C          63.2048   80.9726   10.0927 C.ar    1  UNL1        0.0029
     30 C          62.9375   79.5512    9.6946 C.ar    1  UNL1        0.0207
     31 C          62.5769   78.5354   10.7377 C.ar    1  UNL1        0.0986
     32 N          62.4835   78.9410   12.1789 N.ar    1  UNL1       -0.2445
@<TRIPOS>BOND
     1     5     6    1
     2     6     7   ar
     3     7     8   ar
     4     8     9    1
     5     8    10   ar
     6    10    13    1
     7    13    14   ar
     8    14    15   ar
     9    15    16   ar
    10    16    17   ar
    11    10    11   ar
    12    11    12   ar
    13    12     1    1
    14     1     2   am
    15     2     3    2
    16     2    19    1
    17    19    20   ar
    18    20    21   ar
    19    21    22   ar
    20    22    25    1
    21    25    26    1
    22    26    27    1
    23    27    28   ar
    24    28    29   ar
    25    29    30   ar
    26    30    31   ar
    27    31    32   ar
    28    22    23   ar
    29    23    24   ar
    30    12     6   ar
    31    24    19   ar
    32    17    13   ar
    33    32    27   ar
    34    17    18    1
    35     1     4    1
