@<TRIPOS>MOLECULE
*****
 36 40 0 0 0
SMALL
GASTEIGER

@<TRIPOS>ATOM
      1 C          60.1826   89.1708    9.4501 C.3     1  UNL1        0.0705
      2 C          59.6334   89.5671    8.1116 C.3     1  UNL1        0.0082
      3 C          59.5364   88.5530    7.0107 C.3     1  UNL1        0.0005
      4 C          59.9884   87.1426    7.2480 C.3     1  UNL1        0.0005
      5 C          60.5376   86.7464    8.5865 C.3     1  UNL1        0.0095
      6 C          60.6347   87.7605    9.6874 C.3     1  UNL1        0.0840
      7 C          61.1838   87.3642   11.0259 C.2     1  UNL1        0.2261
      8 O          60.2891   87.3513   12.2297 O.2     1  UNL1       -0.2748
      9 N          62.6278   86.9808   11.1604 N.am    1  UNL1       -0.2814
     10 H          63.2151   86.9892   10.3703 H       1  UNL1        0.1549
     11 C          63.1770   86.5845   12.4989 C.ar    1  UNL1        0.0935
     12 C          63.7323   87.5162   13.5350 C.ar    1  UNL1        0.1364
     13 N          64.1658   86.6944   14.7126 N.ar    1  UNL1       -0.1662
     14 N          63.8784   85.2548   14.4043 N.ar    1  UNL1       -0.2434
     15 C          63.2672   85.1869   13.0361 C.ar    1  UNL1        0.1460
     16 C          62.8719   83.8612   12.4562 C.2     1  UNL1        0.2646
     17 O          62.2608   83.7933   11.0881 O.2     1  UNL1       -0.2685
     18 N          63.0877   82.6035   13.2446 N.am    1  UNL1       -0.2976
     19 C          63.6988   82.6714   14.6128 C.3     1  UNL1        0.1161
     20 C          64.0941   83.9971   15.1926 C.3     1  UNL1        0.1488
     21 H          62.8282   81.7334   12.8640 H       1  UNL1        0.1499
     22 C          60.2797   90.1849   10.5510 C.2     1  UNL1        0.1731
     23 O          59.0368   90.8318   11.0866 O.2     1  UNL1       -0.2913
     24 C          64.2996   91.2866   12.2473 C.ar    1  UNL1        0.0194
     25 C          64.0279   91.4685   10.7834 C.ar    1  UNL1        0.0016
     26 C          62.6880   91.1013   10.2180 C.ar    1  UNL1        0.0029
     27 C          61.6196   90.5522   11.1164 C.ar    1  UNL1        0.0347
     28 C          61.8913   90.3703   12.5803 C.ar    1  UNL1        0.0029
     29 C          63.2313   90.7374   13.1459 C.ar    1  UNL1        0.0016
     30 C          68.2649   92.1161   15.6339 C.3     1  UNL1        0.0515
     31 C          67.4622   92.0351   14.3693 C.ar    1  UNL1        0.0535
     32 C          66.0399   91.5722   14.2560 C.ar    1  UNL1        0.0349
     33 C          65.6395   91.6538   12.8127 C.ar    1  UNL1        0.1018
     34 N          66.8143   92.1670   12.0341 N.ar    1  UNL1       -0.1730
     35 N          67.9409   92.4027   12.9961 N.ar    1  UNL1       -0.2798
     36 H          68.8370   92.7395   12.7666 H       1  UNL1        0.1886
@<TRIPOS>BOND
     1    30    31    1
     2    31    32   ar
     3    32    33   ar
     4    33    24    1
     5    24    25   ar
     6    25    26   ar
     7    26    27   ar
     8    27    22    1
     9    22    23    2
    10     1    22    1
    11     1     2    1
    12     2     3    1
    13     3     4    1
    14     4     5    1
    15     5     6    1
    16     6     7    1
    17     7     8    2
    18     7     9   am
    19     9    11    1
    20    11    12   ar
    21    12    13   ar
    22    13    14   ar
    23    14    15   ar
    24    15    16    1
    25    16    17    2
    26    16    18   am
    27    18    19    1
    28    19    20    1
    29    27    28   ar
    30    28    29   ar
    31    33    34   ar
    32    34    35   ar
    33    35    31   ar
    34    29    24   ar
    35     6     1    1
    36    15    11   ar
    37    20    14    1
    38     9    10    1
    39    18    21    1
    40    35    36    1
@<TRIPOS>MOLECULE
*****
 36 40 0 0 0
SMALL
GASTEIGER

@<TRIPOS>ATOM
      1 C          64.4151   90.8668   14.5530 C.3     1  UNL1        0.0705
      2 C          63.6081   90.6587   15.8002 C.3     1  UNL1        0.0082
      3 C          63.9284   91.4401   17.0399 C.3     1  UNL1        0.0005
      4 C          65.0557   92.4295   17.0325 C.3     1  UNL1        0.0005
      5 C          65.8628   92.6376   15.7853 C.3     1  UNL1        0.0095
      6 C          65.5424   91.8562   14.5456 C.3     1  UNL1        0.0840
      7 C          66.3494   92.0643   13.2984 C.2     1  UNL1        0.2261
      8 O          67.7082   91.4417   13.1718 O.2     1  UNL1       -0.2748
      9 N          65.7976   92.8949   12.1778 N.am    1  UNL1       -0.2814
     10 H          64.9057   93.3035   12.2609 H       1  UNL1        0.1549
     11 C          66.6046   93.1030   10.9306 C.ar    1  UNL1        0.0935
     12 C          67.4434   92.0686   10.2404 C.ar    1  UNL1        0.1364
     13 N          68.0717   92.7083    9.0380 N.ar    1  UNL1       -0.1662
     14 N          67.6212   94.1381    8.9850 N.ar    1  UNL1       -0.2434
     15 C          66.7144   94.3820   10.1547 C.ar    1  UNL1        0.1460
     16 C          66.1060   95.7372   10.3622 C.2     1  UNL1        0.2646
     17 O          65.1992   95.9811   11.5320 O.2     1  UNL1       -0.2685
     18 N          66.4042   96.8485    9.4000 N.am    1  UNL1       -0.2976
     19 C          67.3110   96.6046    8.2302 C.3     1  UNL1        0.1161
     20 C          67.9194   95.2494    8.0227 C.3     1  UNL1        0.1488
     21 H          66.0049   97.7380    9.5361 H       1  UNL1        0.1499
     22 C          64.0947   90.0854   13.3133 C.2     1  UNL1        0.1731
     23 O          63.9488   90.7920   11.9982 O.2     1  UNL1       -0.2913
     24 C          63.5716   85.6216   13.5397 C.ar    1  UNL1        0.0194
     25 C          62.9910   86.3874   12.3879 C.ar    1  UNL1        0.0016
     26 C          63.1653   87.8753   12.3124 C.ar    1  UNL1        0.0029
     27 C          63.9203   88.5975   13.3887 C.ar    1  UNL1        0.0347
     28 C          64.5009   87.8318   14.5405 C.ar    1  UNL1        0.0029
     29 C          64.3266   86.3438   14.6160 C.ar    1  UNL1        0.0016
     30 C          62.7110   80.5912   12.1850 C.3     1  UNL1        0.0515
     31 C          63.0016   81.8215   12.9924 C.ar    1  UNL1        0.0535
     32 C          63.0888   83.2227   12.4641 C.ar    1  UNL1        0.0349
     33 C          63.3972   84.1337   13.6151 C.ar    1  UNL1        0.1018
     34 N          63.5006   83.2957   14.8548 N.ar    1  UNL1       -0.1730
     35 N          63.2561   81.8666   14.4700 N.ar    1  UNL1       -0.2798
     36 H          63.2616   81.0939   15.0801 H       1  UNL1        0.1886
@<TRIPOS>BOND
     1    30    31    1
     2    31    32   ar
     3    32    33   ar
     4    33    24    1
     5    24    25   ar
     6    25    26   ar
     7    26    27   ar
     8    27    22    1
     9    22    23    2
    10     1    22    1
    11     1     2    1
    12     2     3    1
    13     3     4    1
    14     4     5    1
    15     5     6    1
    16     6     7    1
    17     7     8    2
    18     7     9   am
    19     9    11    1
    20    11    12   ar
    21    12    13   ar
    22    13    14   ar
    23    14    15   ar
    24    15    16    1
    25    16    17    2
    26    16    18   am
    27    18    19    1
    28    19    20    1
    29    27    28   ar
    30    28    29   ar
    31    33    34   ar
    32    34    35   ar
    33    35    31   ar
    34    29    24   ar
    35     6     1    1
    36    15    11   ar
    37    20    14    1
    38     9    10    1
    39    18    21    1
    40    35    36    1
@<TRIPOS>MOLECULE
*****
 36 40 0 0 0
SMALL
GASTEIGER

@<TRIPOS>ATOM
      1 C          60.3124   88.4764    9.9183 C.3     1  UNL1        0.0705
      2 C          59.8113   89.3361    8.7958 C.3     1  UNL1        0.0082
      3 C          59.7003   88.7714    7.4106 C.3     1  UNL1        0.0005
      4 C          60.0902   87.3470    7.1479 C.3     1  UNL1        0.0005
      5 C          60.5912   86.4873    8.2704 C.3     1  UNL1        0.0095
      6 C          60.7023   87.0521    9.6555 C.3     1  UNL1        0.0840
      7 C          61.2033   86.1924   10.7780 C.2     1  UNL1        0.2261
      8 O          60.6424   86.3601   12.1591 O.2     1  UNL1       -0.2748
      9 N          62.2653   85.1650   10.5195 N.am    1  UNL1       -0.2814
     10 H          62.6334   85.0549    9.6130 H       1  UNL1        0.1549
     11 C          62.7663   84.3054   11.6420 C.ar    1  UNL1        0.0935
     12 C          62.7036   82.8079   11.7013 C.ar    1  UNL1        0.1364
     13 N          63.3165   82.3693   12.9982 N.ar    1  UNL1       -0.1662
     14 N          63.7580   83.5958   13.7404 N.ar    1  UNL1       -0.2434
     15 C          63.4179   84.7924   12.9022 C.ar    1  UNL1        0.1460
     16 C          63.7456   86.1707   13.3948 C.2     1  UNL1        0.2646
     17 O          63.4055   87.3673   12.5565 O.2     1  UNL1       -0.2685
     18 N          64.4133   86.3526   14.7255 N.am    1  UNL1       -0.2976
     19 C          64.7534   85.1560   15.5638 C.3     1  UNL1        0.1161
     20 C          64.4257   83.7776   15.0712 C.3     1  UNL1        0.1488
     21 H          64.6284   87.2572   15.0488 H       1  UNL1        0.1499
     22 C          60.4234   89.0412   11.3035 C.2     1  UNL1        0.1731
     23 O          59.2992   88.8597   12.2798 O.2     1  UNL1       -0.2913
     24 C          64.1293   91.2799   12.5301 C.ar    1  UNL1        0.0194
     25 C          63.7204   91.2396   11.0875 C.ar    1  UNL1        0.0016
     26 C          62.4852   90.4934   10.6786 C.ar    1  UNL1        0.0029
     27 C          61.6587   89.7874   11.7123 C.ar    1  UNL1        0.0347
     28 C          62.0676   89.8277   13.1549 C.ar    1  UNL1        0.0029
     29 C          63.3029   90.5740   13.5639 C.ar    1  UNL1        0.0016
     30 C          68.4988   92.7221   15.1203 C.3     1  UNL1        0.0515
     31 C          67.3730   92.6891   14.1295 C.ar    1  UNL1        0.0535
     32 C          66.2646   91.6792   14.0877 C.ar    1  UNL1        0.0349
     33 C          65.3646   92.0262   12.9390 C.ar    1  UNL1        0.1018
     34 N          65.9168   93.2504   12.2708 N.ar    1  UNL1       -0.1730
     35 N          67.1581   93.6601   13.0066 N.ar    1  UNL1       -0.2798
     36 H          67.7311   94.4309   12.7905 H       1  UNL1        0.1886
@<TRIPOS>BOND
     1    30    31    1
     2    31    32   ar
     3    32    33   ar
     4    33    24    1
     5    24    25   ar
     6    25    26   ar
     7    26    27   ar
     8    27    22    1
     9    22    23    2
    10     1    22    1
    11     1     2    1
    12     2     3    1
    13     3     4    1
    14     4     5    1
    15     5     6    1
    16     6     7    1
    17     7     8    2
    18     7     9   am
    19     9    11    1
    20    11    12   ar
    21    12    13   ar
    22    13    14   ar
    23    14    15   ar
    24    15    16    1
    25    16    17    2
    26    16    18   am
    27    18    19    1
    28    19    20    1
    29    27    28   ar
    30    28    29   ar
    31    33    34   ar
    32    34    35   ar
    33    35    31   ar
    34    29    24   ar
    35     6     1    1
    36    15    11   ar
    37    20    14    1
    38     9    10    1
    39    18    21    1
    40    35    36    1
@<TRIPOS>MOLECULE
*****
 36 40 0 0 0
SMALL
GASTEIGER

@<TRIPOS>ATOM
      1 C          63.4855   88.6609   14.6029 C.3     1  UNL1        0.0705
      2 C          63.2528   89.8161   15.5310 C.3     1  UNL1        0.0082
      3 C          63.1051   89.5765   17.0044 C.3     1  UNL1        0.0005
      4 C          63.1900   88.1817   17.5497 C.3     1  UNL1        0.0005
      5 C          63.4227   87.0265   16.6216 C.3     1  UNL1        0.0095
      6 C          63.5704   87.2661   15.1482 C.3     1  UNL1        0.0840
      7 C          63.8030   86.1109   14.2201 C.2     1  UNL1        0.2261
      8 O          65.1709   85.5067   14.1029 O.2     1  UNL1       -0.2748
      9 N          62.6677   85.5599   13.4092 N.am    1  UNL1       -0.2814
     10 H          61.7699   85.9565   13.4861 H       1  UNL1        0.1549
     11 C          62.9003   84.4047   12.4810 C.ar    1  UNL1        0.0935
     12 C          63.3009   84.4994   11.0386 C.ar    1  UNL1        0.1364
     13 N          63.4214   83.1052   10.4986 N.ar    1  UNL1       -0.1662
     14 N          63.0952   82.1488   11.6072 N.ar    1  UNL1       -0.2434
     15 C          62.7732   82.9520   12.8325 C.ar    1  UNL1        0.1460
     16 C          62.4058   82.2568   14.1098 C.2     1  UNL1        0.2646
     17 O          62.0837   83.0599   15.3350 O.2     1  UNL1       -0.2685
     18 N          62.3604   80.7584   14.1619 N.am    1  UNL1       -0.2976
     19 C          62.6824   79.9553   12.9366 C.3     1  UNL1        0.1161
     20 C          63.0498   80.6505   11.6593 C.3     1  UNL1        0.1488
     21 H          62.1193   80.3021   15.0003 H       1  UNL1        0.1499
     22 C          63.6332   88.9005   13.1296 C.2     1  UNL1        0.1731
     23 O          63.2095   87.8447   12.1518 O.2     1  UNL1       -0.2913
     24 C          65.3475   92.7865   11.6428 C.ar    1  UNL1        0.0194
     25 C          64.3208   92.0586   10.8267 C.ar    1  UNL1        0.0016
     26 C          63.7493   90.7633   11.3222 C.ar    1  UNL1        0.0029
     27 C          64.2046   90.1958   12.6340 C.ar    1  UNL1        0.0347
     28 C          65.2313   90.9236   13.4501 C.ar    1  UNL1        0.0029
     29 C          65.8028   92.2190   12.9546 C.ar    1  UNL1        0.0016
     30 C          67.5533   96.4385    8.5319 C.3     1  UNL1        0.0515
     31 C          66.9328   95.7605    9.7173 C.ar    1  UNL1        0.0535
     32 C          66.4725   94.3340    9.7762 C.ar    1  UNL1        0.0349
     33 C          65.9189   94.0818   11.1472 C.ar    1  UNL1        0.1018
     34 N          66.0369   95.3524   11.9357 N.ar    1  UNL1       -0.1730
     35 N          66.6635   96.3899   11.0519 N.ar    1  UNL1       -0.2798
     36 H          66.8630   97.3205   11.3037 H       1  UNL1        0.1886
@<TRIPOS>BOND
     1    30    31    1
     2    31    32   ar
     3    32    33   ar
     4    33    24    1
     5    24    25   ar
     6    25    26   ar
     7    26    27   ar
     8    27    22    1
     9    22    23    2
    10     1    22    1
    11     1     2    1
    12     2     3    1
    13     3     4    1
    14     4     5    1
    15     5     6    1
    16     6     7    1
    17     7     8    2
    18     7     9   am
    19     9    11    1
    20    11    12   ar
    21    12    13   ar
    22    13    14   ar
    23    14    15   ar
    24    15    16    1
    25    16    17    2
    26    16    18   am
    27    18    19    1
    28    19    20    1
    29    27    28   ar
    30    28    29   ar
    31    33    34   ar
    32    34    35   ar
    33    35    31   ar
    34    29    24   ar
    35     6     1    1
    36    15    11   ar
    37    20    14    1
    38     9    10    1
    39    18    21    1
    40    35    36    1
@<TRIPOS>MOLECULE
*****
 36 40 0 0 0
SMALL
GASTEIGER

@<TRIPOS>ATOM
      1 C          60.4295   87.6678    9.7268 C.3     1  UNL1        0.0705
      2 C          59.4381   88.2275    8.7501 C.3     1  UNL1        0.0082
      3 C          59.1748   87.5144    7.4570 C.3     1  UNL1        0.0005
      4 C          59.9028   86.2418    7.1404 C.3     1  UNL1        0.0005
      5 C          60.8942   85.6821    8.1171 C.3     1  UNL1        0.0095
      6 C          61.1576   86.3952    9.4102 C.3     1  UNL1        0.0840
      7 C          62.1490   85.8355   10.3869 C.2     1  UNL1        0.2261
      8 O          63.4030   85.1794    9.8899 O.2     1  UNL1       -0.2748
      9 N          61.8864   85.9320   11.8607 N.am    1  UNL1       -0.2814
     10 H          61.0634   86.3627   12.1869 H       1  UNL1        0.1549
     11 C          62.8779   85.3724   12.8373 C.ar    1  UNL1        0.0935
     12 C          63.7108   86.1654   13.8003 C.ar    1  UNL1        0.1364
     13 N          64.5581   85.2046   14.5806 N.ar    1  UNL1       -0.1662
     14 N          64.2489   83.8177   14.0999 N.ar    1  UNL1       -0.2434
     15 C          63.2104   83.9215   13.0224 C.ar    1  UNL1        0.1460
     16 C          62.7018   82.6814   12.3491 C.2     1  UNL1        0.2646
     17 O          61.6633   82.7851   11.2717 O.2     1  UNL1       -0.2685
     18 N          63.2316   81.3375   12.7532 N.am    1  UNL1       -0.2976
     19 C          64.2700   81.2338   13.8307 C.3     1  UNL1        0.1161
     20 C          64.7787   82.4739   14.5040 C.3     1  UNL1        0.1488
     21 H          62.8978   80.5236   12.3113 H       1  UNL1        0.1499
     22 C          60.6929   88.3808   11.0199 C.2     1  UNL1        0.1731
     23 O          59.8549   88.0792   12.2269 O.2     1  UNL1       -0.2913
     24 C          63.9969   91.4250   11.2784 C.ar    1  UNL1        0.0194
     25 C          63.7308   90.5070   12.4344 C.ar    1  UNL1        0.0016
     26 C          62.6295   89.4923   12.3483 C.ar    1  UNL1        0.0029
     27 C          61.7942   89.3955   11.1061 C.ar    1  UNL1        0.0347
     28 C          62.0603   90.3135    9.9501 C.ar    1  UNL1        0.0029
     29 C          63.1617   91.3283   10.0362 C.ar    1  UNL1        0.0016
     30 C          67.2042   95.4636   10.1456 C.3     1  UNL1        0.0515
     31 C          66.5725   94.2960   10.8439 C.ar    1  UNL1        0.0535
     32 C          65.3887   93.5133   10.3581 C.ar    1  UNL1        0.0349
     33 C          65.0983   92.4397   11.3645 C.ar    1  UNL1        0.1018
     34 N          66.1026   92.5588   12.4723 N.ar    1  UNL1       -0.1730
     35 N          67.0137   93.7062   12.1506 N.ar    1  UNL1       -0.2798
     36 H          67.7687   94.0174   12.7004 H       1  UNL1        0.1886
@<TRIPOS>BOND
     1    30    31    1
     2    31    32   ar
     3    32    33   ar
     4    33    24    1
     5    24    25   ar
     6    25    26   ar
     7    26    27   ar
     8    27    22    1
     9    22    23    2
    10     1    22    1
    11     1     2    1
    12     2     3    1
    13     3     4    1
    14     4     5    1
    15     5     6    1
    16     6     7    1
    17     7     8    2
    18     7     9   am
    19     9    11    1
    20    11    12   ar
    21    12    13   ar
    22    13    14   ar
    23    14    15   ar
    24    15    16    1
    25    16    17    2
    26    16    18   am
    27    18    19    1
    28    19    20    1
    29    27    28   ar
    30    28    29   ar
    31    33    34   ar
    32    34    35   ar
    33    35    31   ar
    34    29    24   ar
    35     6     1    1
    36    15    11   ar
    37    20    14    1
    38     9    10    1
    39    18    21    1
    40    35    36    1
@<TRIPOS>MOLECULE
*****
 36 40 0 0 0
SMALL
GASTEIGER

@<TRIPOS>ATOM
      1 C          61.1715   88.1036    9.8323 C.3     1  UNL1        0.0705
      2 C          60.2067   89.1914    9.4637 C.3     1  UNL1        0.0082
      3 C          59.3103   89.0268    8.2723 C.3     1  UNL1        0.0005
      4 C          59.3786   87.7746    7.4495 C.3     1  UNL1        0.0005
      5 C          60.3435   86.6868    7.8180 C.3     1  UNL1        0.0095
      6 C          61.2399   86.8514    9.0094 C.3     1  UNL1        0.0840
      7 C          62.2048   85.7636    9.3780 C.2     1  UNL1        0.2261
      8 O          63.3806   85.4725    8.4932 O.2     1  UNL1       -0.2748
      9 N          61.9938   84.9669   10.6314 N.am    1  UNL1       -0.2814
     10 H          61.2221   85.1579   11.2121 H       1  UNL1        0.1549
     11 C          62.9587   83.8791   10.9999 C.ar    1  UNL1        0.0935
     12 C          63.8291   83.1130   10.0484 C.ar    1  UNL1        0.1364
     13 N          64.6309   82.1269   10.8452 N.ar    1  UNL1       -0.1662
     14 N          64.2560   82.2836   12.2891 N.ar    1  UNL1       -0.2434
     15 C          63.2225   83.3666   12.3848 C.ar    1  UNL1        0.1460
     16 C          62.6551   83.7460   13.7204 C.2     1  UNL1        0.2646
     17 O          61.6217   84.8290   13.8161 O.2     1  UNL1       -0.2685
     18 N          63.1213   83.0426   14.9605 N.am    1  UNL1       -0.2976
     19 C          64.1548   81.9596   14.8649 C.3     1  UNL1        0.1161
     20 C          64.7221   81.5802   13.5292 C.3     1  UNL1        0.1488
     21 H          62.7489   83.2916   15.8372 H       1  UNL1        0.1499
     22 C          62.0679   88.2682   11.0236 C.2     1  UNL1        0.1731
     23 O          62.1509   87.1826   12.0554 O.2     1  UNL1       -0.2913
     24 C          64.5081   92.0187   11.5025 C.ar    1  UNL1        0.0194
     25 C          63.8960   91.6867   10.1739 C.ar    1  UNL1        0.0016
     26 C          63.0826   90.4366   10.0143 C.ar    1  UNL1        0.0029
     27 C          62.8813   89.5183   11.1832 C.ar    1  UNL1        0.0347
     28 C          63.4934   89.8503   12.5118 C.ar    1  UNL1        0.0029
     29 C          64.3069   91.1005   12.6715 C.ar    1  UNL1        0.0016
     30 C          66.8025   96.6748   10.5346 C.3     1  UNL1        0.0515
     31 C          66.3761   95.4091   11.2172 C.ar    1  UNL1        0.0535
     32 C          65.4807   94.3538   10.6386 C.ar    1  UNL1        0.0349
     33 C          65.3215   93.2689   11.6621 C.ar    1  UNL1        0.1018
     34 N          66.1184   93.6535   12.8732 N.ar    1  UNL1       -0.1730
     35 N          66.7703   94.9763   12.5983 N.ar    1  UNL1       -0.2798
     36 H          67.3542   95.4732   13.2158 H       1  UNL1        0.1886
@<TRIPOS>BOND
     1    30    31    1
     2    31    32   ar
     3    32    33   ar
     4    33    24    1
     5    24    25   ar
     6    25    26   ar
     7    26    27   ar
     8    27    22    1
     9    22    23    2
    10     1    22    1
    11     1     2    1
    12     2     3    1
    13     3     4    1
    14     4     5    1
    15     5     6    1
    16     6     7    1
    17     7     8    2
    18     7     9   am
    19     9    11    1
    20    11    12   ar
    21    12    13   ar
    22    13    14   ar
    23    14    15   ar
    24    15    16    1
    25    16    17    2
    26    16    18   am
    27    18    19    1
    28    19    20    1
    29    27    28   ar
    30    28    29   ar
    31    33    34   ar
    32    34    35   ar
    33    35    31   ar
    34    29    24   ar
    35     6     1    1
    36    15    11   ar
    37    20    14    1
    38     9    10    1
    39    18    21    1
    40    35    36    1
@<TRIPOS>MOLECULE
*****
 36 40 0 0 0
SMALL
GASTEIGER

@<TRIPOS>ATOM
      1 C          61.0187   89.4404   11.2645 C.3     1  UNL1        0.0705
      2 C          60.2951   90.7192   11.5668 C.3     1  UNL1        0.0082
      3 C          58.8318   90.6933   11.8953 C.3     1  UNL1        0.0005
      4 C          58.0919   89.3888   11.9215 C.3     1  UNL1        0.0005
      5 C          58.8154   88.1101   11.6192 C.3     1  UNL1        0.0095
      6 C          60.2788   88.1359   11.2907 C.3     1  UNL1        0.0840
      7 C          61.0023   86.8572   10.9884 C.2     1  UNL1        0.2261
      8 O          60.8439   86.2050    9.6470 O.2     1  UNL1       -0.2748
      9 N          61.8842   86.2307   12.0277 N.am    1  UNL1       -0.2814
     10 H          61.9881   86.6588   12.9081 H       1  UNL1        0.1549
     11 C          62.6077   84.9520   11.7254 C.ar    1  UNL1        0.0935
     12 C          63.2151   84.5730   10.4073 C.ar    1  UNL1        0.1364
     13 N          63.8336   83.2145   10.5554 N.ar    1  UNL1       -0.1662
     14 N          63.6084   82.7539   11.9651 N.ar    1  UNL1       -0.2434
     15 C          62.8508   83.8277   12.6882 C.ar    1  UNL1        0.1460
     16 C          62.4801   83.6430   14.1298 C.2     1  UNL1        0.2646
     17 O          61.7224   84.7168   14.8529 O.2     1  UNL1       -0.2685
     18 N          62.8670   82.3846   14.8484 N.am    1  UNL1       -0.2976
     19 C          63.6247   81.3107   14.1253 C.3     1  UNL1        0.1161
     20 C          63.9954   81.4954   12.6837 C.3     1  UNL1        0.1488
     21 H          62.6238   82.2633   15.7946 H       1  UNL1        0.1499
     22 C          62.4820   89.4663   10.9360 C.2     1  UNL1        0.1731
     23 O          62.9805   88.8141    9.6805 O.2     1  UNL1       -0.2913
     24 C          65.3766   91.5002   13.7171 C.ar    1  UNL1        0.0194
     25 C          65.0669   92.1082   12.3813 C.ar    1  UNL1        0.0016
     26 C          64.1021   91.4303   11.4543 C.ar    1  UNL1        0.0029
     27 C          63.4469   90.1443   11.8630 C.ar    1  UNL1        0.0347
     28 C          63.7566   89.5363   13.1988 C.ar    1  UNL1        0.0029
     29 C          64.7215   90.2143   14.1260 C.ar    1  UNL1        0.0016
     30 C          69.7722   93.6668   15.6833 C.3     1  UNL1        0.0515
     31 C          68.3619   93.1741   15.5479 C.ar    1  UNL1        0.0535
     32 C          67.7753   92.4999   14.3431 C.ar    1  UNL1        0.0349
     33 C          66.3415   92.1782   14.6441 C.ar    1  UNL1        0.1018
     34 N          66.0419   92.6535   16.0349 N.ar    1  UNL1       -0.1730
     35 N          67.2906   93.2690   16.5935 N.ar    1  UNL1       -0.2798
     36 H          67.3897   93.6656   17.4891 H       1  UNL1        0.1886
@<TRIPOS>BOND
     1    30    31    1
     2    31    32   ar
     3    32    33   ar
     4    33    24    1
     5    24    25   ar
     6    25    26   ar
     7    26    27   ar
     8    27    22    1
     9    22    23    2
    10     1    22    1
    11     1     2    1
    12     2     3    1
    13     3     4    1
    14     4     5    1
    15     5     6    1
    16     6     7    1
    17     7     8    2
    18     7     9   am
    19     9    11    1
    20    11    12   ar
    21    12    13   ar
    22    13    14   ar
    23    14    15   ar
    24    15    16    1
    25    16    17    2
    26    16    18   am
    27    18    19    1
    28    19    20    1
    29    27    28   ar
    30    28    29   ar
    31    33    34   ar
    32    34    35   ar
    33    35    31   ar
    34    29    24   ar
    35     6     1    1
    36    15    11   ar
    37    20    14    1
    38     9    10    1
    39    18    21    1
    40    35    36    1
@<TRIPOS>MOLECULE
*****
 36 40 0 0 0
SMALL
GASTEIGER

@<TRIPOS>ATOM
      1 C          63.0654   82.8854   12.7281 C.3     1  UNL1        0.0705
      2 C          63.2298   81.6329   11.9192 C.3     1  UNL1        0.0082
      3 C          62.7257   80.3245   12.4519 C.3     1  UNL1        0.0005
      4 C          62.0572   80.2684   13.7935 C.3     1  UNL1        0.0005
      5 C          61.8928   81.5208   14.6024 C.3     1  UNL1        0.0095
      6 C          62.3969   82.8293   14.0697 C.3     1  UNL1        0.0840
      7 C          62.2326   84.0817   14.8786 C.2     1  UNL1        0.2261
      8 O          60.8798   84.7158   15.0128 O.2     1  UNL1       -0.2748
      9 N          63.4210   84.7002   15.5534 N.am    1  UNL1       -0.2814
     10 H          64.3089   84.2840   15.4654 H       1  UNL1        0.1549
     11 C          63.2567   85.9526   16.3623 C.ar    1  UNL1        0.0935
     12 C          62.8178   86.0258   17.7948 C.ar    1  UNL1        0.1364
     13 N          62.7922   87.4702   18.1985 N.ar    1  UNL1       -0.1662
     14 N          63.2153   88.2897   17.0156 N.ar    1  UNL1       -0.2434
     15 C          63.5024   87.3518   15.8807 C.ar    1  UNL1        0.1460
     16 C          63.9504   87.8930   14.5555 C.2     1  UNL1        0.2646
     17 O          64.2375   86.9550   13.4206 O.2     1  UNL1       -0.2685
     18 N          64.1114   89.3721   14.3651 N.am    1  UNL1       -0.2976
     19 C          63.8243   90.3100   15.4999 C.3     1  UNL1        0.1161
     20 C          63.3763   89.7688   16.8252 C.3     1  UNL1        0.1488
     21 H          64.4054   89.7273   13.4953 H       1  UNL1        0.1499
     22 C          63.5695   84.1938   12.1954 C.2     1  UNL1        0.1731
     23 O          64.9224   84.6981   12.6023 O.2     1  UNL1       -0.2913
     24 C          61.0233   86.6064    9.3764 C.ar    1  UNL1        0.0194
     25 C          60.8184   86.7222   10.8579 C.ar    1  UNL1        0.0016
     26 C          61.6671   85.9181   11.7975 C.ar    1  UNL1        0.0029
     27 C          62.7208   84.9980   11.2558 C.ar    1  UNL1        0.0347
     28 C          62.9257   84.8823    9.7744 C.ar    1  UNL1        0.0029
     29 C          62.0769   85.6865    8.8346 C.ar    1  UNL1        0.0016
     30 C          59.3162   90.4713    6.2095 C.3     1  UNL1        0.0515
     31 C          59.3899   89.1871    6.9812 C.ar    1  UNL1        0.0535
     32 C          60.5194   88.7554    7.8688 C.ar    1  UNL1        0.0349
     33 C          60.1746   87.4106    8.4368 C.ar    1  UNL1        0.1018
     34 N          58.8320   87.0112    7.9003 N.ar    1  UNL1       -0.1730
     35 N          58.3470   88.1092    7.0006 N.ar    1  UNL1       -0.2798
     36 H          57.4940   88.1204    6.5092 H       1  UNL1        0.1886
@<TRIPOS>BOND
     1    30    31    1
     2    31    32   ar
     3    32    33   ar
     4    33    24    1
     5    24    25   ar
     6    25    26   ar
     7    26    27   ar
     8    27    22    1
     9    22    23    2
    10     1    22    1
    11     1     2    1
    12     2     3    1
    13     3     4    1
    14     4     5    1
    15     5     6    1
    16     6     7    1
    17     7     8    2
    18     7     9   am
    19     9    11    1
    20    11    12   ar
    21    12    13   ar
    22    13    14   ar
    23    14    15   ar
    24    15    16    1
    25    16    17    2
    26    16    18   am
    27    18    19    1
    28    19    20    1
    29    27    28   ar
    30    28    29   ar
    31    33    34   ar
    32    34    35   ar
    33    35    31   ar
    34    29    24   ar
    35     6     1    1
    36    15    11   ar
    37    20    14    1
    38     9    10    1
    39    18    21    1
    40    35    36    1
@<TRIPOS>MOLECULE
*****
 36 40 0 0 0
SMALL
GASTEIGER

@<TRIPOS>ATOM
      1 C          63.7760   87.9850   14.2717 C.3     1  UNL1        0.0705
      2 C          64.4688   87.3602   15.4462 C.3     1  UNL1        0.0082
      3 C          64.8125   85.9002   15.4245 C.3     1  UNL1        0.0005
      4 C          64.4634   85.0651   14.2285 C.3     1  UNL1        0.0005
      5 C          63.7705   85.6900   13.0540 C.3     1  UNL1        0.0095
      6 C          63.4268   87.1499   13.0756 C.3     1  UNL1        0.0840
      7 C          62.7340   87.7748   11.9011 C.2     1  UNL1        0.2261
      8 O          63.4664   87.9487   10.6036 O.2     1  UNL1       -0.2748
      9 N          61.3086   88.2259   12.0240 N.am    1  UNL1       -0.2814
     10 H          60.8279   88.1118   12.8756 H       1  UNL1        0.1549
     11 C          60.6157   88.8508   10.8495 C.ar    1  UNL1        0.0935
     12 C          60.1885   90.2843   10.7383 C.ar    1  UNL1        0.1364
     13 N          59.5372   90.4713    9.4001 N.ar    1  UNL1       -0.1662
     14 N          59.5619   89.1533    8.6843 N.ar    1  UNL1       -0.2434
     15 C          60.2285   88.1518    9.5801 C.ar    1  UNL1        0.1460
     16 C          60.3967   86.7327    9.1242 C.2     1  UNL1        0.2646
     17 O          61.0633   85.7312   10.0201 O.2     1  UNL1       -0.2685
     18 N          59.8983   86.3152    7.7725 N.am    1  UNL1       -0.2976
     19 C          59.2317   87.3168    6.8766 C.3     1  UNL1        0.1161
     20 C          59.0635   88.7358    7.3325 C.3     1  UNL1        0.1488
     21 H          60.0087   85.3838    7.4732 H       1  UNL1        0.1499
     22 C          63.4323   89.4450   14.2933 C.2     1  UNL1        0.1731
     23 O          62.3067   89.9379   15.1536 O.2     1  UNL1       -0.2913
     24 C          65.7781   92.3462   11.7772 C.ar    1  UNL1        0.0194
     25 C          64.4664   91.8135   11.2815 C.ar    1  UNL1        0.0016
     26 C          63.6845   90.8465   12.1201 C.ar    1  UNL1        0.0029
     27 C          64.2142   90.4120   13.4546 C.ar    1  UNL1        0.0347
     28 C          65.5259   90.9447   13.9503 C.ar    1  UNL1        0.0029
     29 C          66.3079   91.9118   13.1116 C.ar    1  UNL1        0.0016
     30 C          67.2750   96.7352    9.2521 C.3     1  UNL1        0.0515
     31 C          67.2481   95.3306    9.7778 C.ar    1  UNL1        0.0535
     32 C          66.1860   94.7381   10.6558 C.ar    1  UNL1        0.0349
     33 C          66.5600   93.3132   10.9385 C.ar    1  UNL1        0.1018
     34 N          67.8532   93.0252   10.2352 N.ar    1  UNL1       -0.1730
     35 N          68.2785   94.2720    9.5179 N.ar    1  UNL1       -0.2798
     36 H          69.0912   94.3771    8.9722 H       1  UNL1        0.1886
@<TRIPOS>BOND
     1    30    31    1
     2    31    32   ar
     3    32    33   ar
     4    33    24    1
     5    24    25   ar
     6    25    26   ar
     7    26    27   ar
     8    27    22    1
     9    22    23    2
    10     1    22    1
    11     1     2    1
    12     2     3    1
    13     3     4    1
    14     4     5    1
    15     5     6    1
    16     6     7    1
    17     7     8    2
    18     7     9   am
    19     9    11    1
    20    11    12   ar
    21    12    13   ar
    22    13    14   ar
    23    14    15   ar
    24    15    16    1
    25    16    17    2
    26    16    18   am
    27    18    19    1
    28    19    20    1
    29    27    28   ar
    30    28    29   ar
    31    33    34   ar
    32    34    35   ar
    33    35    31   ar
    34    29    24   ar
    35     6     1    1
    36    15    11   ar
    37    20    14    1
    38     9    10    1
    39    18    21    1
    40    35    36    1
