@<TRIPOS>MOLECULE
*****
 63 70 0 0 0
SMALL
GASTEIGER

@<TRIPOS>ATOM
      1 N          65.5855   89.2356   14.5522 N.3     1  UNL1       -0.1862
      2 C          65.8493   87.9890   15.3437 C.3     1  UNL1        0.1775
      3 C          65.0451   86.7502   15.0820 C.2     1  UNL1        0.2452
      4 O          65.3090   85.5036   15.8735 O.2     1  UNL1       -0.2732
      5 N          63.9771   86.7579   14.0288 N.am    1  UNL1       -0.2541
      6 C          63.1729   85.5190   13.7671 C.3     1  UNL1        0.1577
      7 C          62.1048   85.5267   12.7139 C.2     1  UNL1        0.2445
      8 O          61.3007   84.2878   12.4522 O.2     1  UNL1       -0.2731
      9 N          61.8410   86.7733   11.9224 N.am    1  UNL1       -0.2705
     10 C          62.6451   88.0122   12.1841 C.3     1  UNL1        0.1359
     11 C          63.7132   88.0044   13.2373 C.3     1  UNL1        0.1908
     12 N          64.5174   89.2433   13.4991 N.am    1  UNL1       -0.1863
     13 C          64.2535   90.4899   12.7075 C.2     1  UNL1        0.3191
     14 O          63.1855   90.4976   11.6544 O.2     1  UNL1       -0.2512
     15 N          65.0577   91.7288   12.9692 N.am    1  UNL1       -0.2836
     16 H          65.7587   91.7237   13.6605 H       1  UNL1        0.1513
     17 C          66.3896   90.4745   14.8139 C.3     1  UNL1        0.1188
     18 C          66.6995   92.7168   16.0889 C.2     1  UNL1       -0.0034
     19 C          65.8351   91.5572   15.6915 C.2     1  UNL1       -0.0071
     20 C          63.4367   84.2725   14.5585 C.3     1  UNL1        0.0556
     21 C          63.2021   82.9268   13.9387 C.ar    1  UNL1       -0.0198
     22 C          64.0469   82.4751   12.7845 C.ar    1  UNL1       -0.0011
     23 C          63.8122   81.1294   12.1647 C.ar    1  UNL1        0.0363
     24 C          62.7328   80.2355   12.6991 C.ar    1  UNL1        0.1337
     25 O          62.4982   78.8898   12.0793 O.3     1  UNL1       -0.5055
     26 C          61.8880   80.6871   13.8534 C.ar    1  UNL1        0.0363
     27 C          62.1226   82.0328   14.4732 C.ar    1  UNL1       -0.0011
     28 H          63.0259   78.6077   11.3583 H       1  UNL1        0.2922
     29 C          60.7729   86.7810   10.8692 C.3     1  UNL1        0.1217
     30 C          60.3793   88.0694   10.2096 C.ar    1  UNL1        0.0135
     31 C          60.0248   89.2628   11.0464 C.ar    1  UNL1       -0.0012
     32 C          59.6312   90.5511   10.3868 C.ar    1  UNL1       -0.0002
     33 C          59.5921   90.6462    8.8904 C.ar    1  UNL1        0.0015
     34 C          59.9466   89.4529    8.0535 C.ar    1  UNL1        0.0170
     35 C          59.9982   89.2480    6.5685 C.ar    1  UNL1        0.0186
     36 C          60.4236   87.8330    6.3103 C.ar    1  UNL1        0.0759
     37 N          60.6350   87.1634    7.6357 N.ar    1  UNL1       -0.3242
     38 C          61.0656   85.7421    7.8468 C.3     1  UNL1        0.1305
     39 C          60.3402   88.1645    8.7131 C.ar    1  UNL1        0.0575
     40 C          59.6801   90.2775    5.5248 C.ar    1  UNL1        0.0016
     41 C          58.2592   90.7015    5.2981 C.ar    1  UNL1        0.0013
     42 C          57.9413   91.7309    4.2545 C.ar    1  UNL1        0.0147
     43 C          59.0440   92.3363    3.4376 C.ar    1  UNL1        0.0516
     44 C          60.4649   91.9122    3.6643 C.ar    1  UNL1        0.0147
     45 C          60.7829   90.8828    4.7079 C.ar    1  UNL1        0.0013
     46 N          58.7260   93.3657    2.3940 N.am    1  UNL1       -0.2683
     47 C          59.2724   93.2191    1.0047 C.2     1  UNL1        0.3044
     48 O          60.1369   92.0430    0.6591 O.2     1  UNL1       -0.2525
     49 N          58.9542   94.2485   -0.0388 N.am    1  UNL1       -0.2903
     50 H          58.1585   94.1376    2.6209 H       1  UNL1        0.1564
     51 H          58.3868   95.0204    0.1881 H       1  UNL1        0.1509
     52 C          59.5007   94.1019   -1.4280 C.3     1  UNL1        0.0730
     53 C          58.6968   93.8539   -2.6699 C.3     1  UNL1        0.0196
     54 C          59.6462   93.7762   -3.8287 C.3     1  UNL1        0.0017
     55 C          61.0368   93.9761   -3.3029 C.3     1  UNL1        0.0017
     56 C          60.9468   94.1774   -1.8191 C.3     1  UNL1        0.0196
     57 C          64.7939   92.9753   12.1778 C.3     1  UNL1        0.1177
     58 C          65.8150   93.4714   11.1974 C.ar    1  UNL1       -0.0025
     59 C          66.7738   92.5091   10.5615 C.ar    1  UNL1       -0.0026
     60 C          67.7949   93.0052    9.5811 C.ar    1  UNL1       -0.0003
     61 C          67.8572   94.4637    9.2365 C.ar    1  UNL1       -0.0000
     62 C          66.8983   95.4262    9.8724 C.ar    1  UNL1       -0.0003
     63 C          65.8772   94.9301   10.8528 C.ar    1  UNL1       -0.0026
@<TRIPOS>BOND
     1    18    19    2
     2    19    17    1
     3    17     1    1
     4     1     2    1
     5     2     3    1
     6     3     4    2
     7     3     5   am
     8     5     6    1
     9     6    20    1
    10    20    21    1
    11    21    22   ar
    12    22    23   ar
    13    23    24   ar
    14    24    25    1
    15    24    26   ar
    16    26    27   ar
    17     6     7    1
    18     7     8    2
    19     7     9   am
    20     9    29    1
    21    29    30    1
    22    30    31   ar
    23    31    32   ar
    24    32    33   ar
    25    33    34   ar
    26    34    35   ar
    27    35    40    1
    28    40    41   ar
    29    41    42   ar
    30    42    43   ar
    31    43    46    1
    32    46    47   am
    33    47    48    2
    34    47    49   am
    35    49    52    1
    36    52    53    1
    37    53    54    1
    38    54    55    1
    39    55    56    1
    40    43    44   ar
    41    44    45   ar
    42    35    36   ar
    43    36    37   ar
    44    37    38    1
    45    37    39   ar
    46     9    10    1
    47    11    10    1
    48    11    12    1
    49    12    13   am
    50    13    14    2
    51    13    15   am
    52    15    57    1
    53    57    58    1
    54    58    59   ar
    55    59    60   ar
    56    60    61   ar
    57    61    62   ar
    58    62    63   ar
    59    12     1    1
    60    63    58   ar
    61    11     5    1
    62    27    21   ar
    63    39    30   ar
    64    39    34   ar
    65    45    40   ar
    66    56    52    1
    67    25    28    1
    68    46    50    1
    69    49    51    1
    70    15    16    1
@<TRIPOS>MOLECULE
*****
 63 70 0 0 0
SMALL
GASTEIGER

@<TRIPOS>ATOM
      1 N          65.5523   89.8876   13.8067 N.3     1  UNL1       -0.1862
      2 C          65.9822   88.7653   14.7043 C.3     1  UNL1        0.1775
      3 C          65.2137   87.4772   14.7152 C.2     1  UNL1        0.2452
      4 O          65.6438   86.3549   15.6129 O.2     1  UNL1       -0.2732
      5 N          64.0153   87.3113   13.8286 N.am    1  UNL1       -0.2541
      6 C          63.2468   86.0231   13.8395 C.3     1  UNL1        0.1577
      7 C          62.0484   85.8572   12.9529 C.2     1  UNL1        0.2445
      8 O          61.2799   84.5691   12.9638 O.2     1  UNL1       -0.2731
      9 N          61.6184   86.9795   12.0552 N.am    1  UNL1       -0.2705
     10 C          62.3869   88.2676   12.0443 C.3     1  UNL1        0.1359
     11 C          63.5854   88.4335   12.9310 C.3     1  UNL1        0.1908
     12 N          64.3538   89.7216   12.9201 N.am    1  UNL1       -0.1863
     13 C          63.9238   90.8439   12.0224 C.2     1  UNL1        0.3191
     14 O          62.7254   90.6780   11.1358 O.2     1  UNL1       -0.2512
     15 N          64.6923   92.1320   12.0115 N.am    1  UNL1       -0.2836
     16 H          65.4789   92.2409   12.5934 H       1  UNL1        0.1513
     17 C          66.3208   91.1757   13.7958 C.3     1  UNL1        0.1188
     18 C          66.8439   92.6382   15.8784 C.2     1  UNL1       -0.0034
     19 C          67.2177   91.5237   14.9466 C.2     1  UNL1       -0.0071
     20 C          63.6768   84.9009   14.7371 C.3     1  UNL1        0.0556
     21 C          63.3995   83.4795   14.3461 C.ar    1  UNL1       -0.0198
     22 C          64.2915   82.7853   13.3601 C.ar    1  UNL1       -0.0011
     23 C          64.0143   81.3639   12.9692 C.ar    1  UNL1        0.0363
     24 C          62.8450   80.6368   13.5643 C.ar    1  UNL1        0.1337
     25 O          62.5678   79.2154   13.1733 O.3     1  UNL1       -0.5055
     26 C          61.9530   81.3310   14.5504 C.ar    1  UNL1        0.0363
     27 C          62.2302   82.7524   14.9413 C.ar    1  UNL1       -0.0011
     28 H          63.1250   78.7817   12.5573 H       1  UNL1        0.2922
     29 C          60.4200   86.8136   11.1686 C.3     1  UNL1        0.1217
     30 C          60.5404   87.0514    9.6924 C.ar    1  UNL1        0.0135
     31 C          61.0273   85.9540    8.7932 C.ar    1  UNL1       -0.0012
     32 C          61.1477   86.1918    7.3171 C.ar    1  UNL1       -0.0002
     33 C          60.7813   87.5270    6.7402 C.ar    1  UNL1        0.0015
     34 C          60.2944   88.6244    7.6394 C.ar    1  UNL1        0.0170
     35 C          59.8631   90.0337    7.3603 C.ar    1  UNL1        0.0186
     36 C          59.4761   90.6668    8.6638 C.ar    1  UNL1        0.0759
     37 N          59.6682   89.6489    9.7486 N.ar    1  UNL1       -0.3242
     38 C          59.4014   89.8568   11.2100 C.3     1  UNL1        0.1305
     39 C          60.1740   88.3866    9.1155 C.ar    1  UNL1        0.0575
     40 C          59.8254   90.6939    6.0138 C.ar    1  UNL1        0.0016
     41 C          61.0840   90.8282    5.2089 C.ar    1  UNL1        0.0013
     42 C          61.0463   91.4884    3.8625 C.ar    1  UNL1        0.0147
     43 C          59.7500   92.0142    3.3211 C.ar    1  UNL1        0.0516
     44 C          58.4914   91.8799    4.1260 C.ar    1  UNL1        0.0147
     45 C          58.5292   91.2198    5.4724 C.ar    1  UNL1        0.0013
     46 N          59.7124   92.6744    1.9747 N.am    1  UNL1       -0.2683
     47 C          60.9757   93.2038    1.3633 C.2     1  UNL1        0.3044
     48 O          62.2767   93.0731    2.0983 O.2     1  UNL1       -0.2525
     49 N          60.9379   93.8640    0.0169 N.am    1  UNL1       -0.2903
     50 H          58.8585   92.7602    1.4923 H       1  UNL1        0.1564
     51 H          60.0840   93.9498   -0.4655 H       1  UNL1        0.1509
     52 C          62.2013   94.3934   -0.5944 C.3     1  UNL1        0.0730
     53 C          62.9975   93.7353   -1.6820 C.3     1  UNL1        0.0196
     54 C          64.1785   94.6090   -1.9853 C.3     1  UNL1        0.0017
     55 C          64.1122   95.8071   -1.0851 C.3     1  UNL1        0.0017
     56 C          62.8901   95.6738   -0.2255 C.3     1  UNL1        0.0196
     57 C          64.2624   93.2543   11.1139 C.3     1  UNL1        0.1177
     58 C          65.2919   94.1088   10.4358 C.ar    1  UNL1       -0.0025
     59 C          65.0782   95.5887   10.3173 C.ar    1  UNL1       -0.0026
     60 C          66.1077   96.4433    9.6392 C.ar    1  UNL1       -0.0003
     61 C          67.3510   95.8179    9.0796 C.ar    1  UNL1       -0.0000
     62 C          67.5647   94.3379    9.1981 C.ar    1  UNL1       -0.0003
     63 C          66.5352   93.4834    9.8762 C.ar    1  UNL1       -0.0026
@<TRIPOS>BOND
     1    18    19    2
     2    19    17    1
     3    17     1    1
     4     1     2    1
     5     2     3    1
     6     3     4    2
     7     3     5   am
     8     5     6    1
     9     6    20    1
    10    20    21    1
    11    21    22   ar
    12    22    23   ar
    13    23    24   ar
    14    24    25    1
    15    24    26   ar
    16    26    27   ar
    17     6     7    1
    18     7     8    2
    19     7     9   am
    20     9    29    1
    21    29    30    1
    22    30    31   ar
    23    31    32   ar
    24    32    33   ar
    25    33    34   ar
    26    34    35   ar
    27    35    40    1
    28    40    41   ar
    29    41    42   ar
    30    42    43   ar
    31    43    46    1
    32    46    47   am
    33    47    48    2
    34    47    49   am
    35    49    52    1
    36    52    53    1
    37    53    54    1
    38    54    55    1
    39    55    56    1
    40    43    44   ar
    41    44    45   ar
    42    35    36   ar
    43    36    37   ar
    44    37    38    1
    45    37    39   ar
    46     9    10    1
    47    11    10    1
    48    11    12    1
    49    12    13   am
    50    13    14    2
    51    13    15   am
    52    15    57    1
    53    57    58    1
    54    58    59   ar
    55    59    60   ar
    56    60    61   ar
    57    61    62   ar
    58    62    63   ar
    59    12     1    1
    60    63    58   ar
    61    11     5    1
    62    27    21   ar
    63    39    30   ar
    64    39    34   ar
    65    45    40   ar
    66    56    52    1
    67    25    28    1
    68    46    50    1
    69    49    51    1
    70    15    16    1
@<TRIPOS>MOLECULE
*****
 63 70 0 0 0
SMALL
GASTEIGER

@<TRIPOS>ATOM
      1 N          64.5553   83.1345   13.3323 N.3     1  UNL1       -0.1862
      2 C          65.1651   83.9893   14.4035 C.3     1  UNL1        0.1775
      3 C          64.7511   85.4241   14.5444 C.2     1  UNL1        0.2452
      4 O          65.3609   86.2789   15.6156 O.2     1  UNL1       -0.2732
      5 N          63.7273   86.0041   13.6142 N.am    1  UNL1       -0.2541
      6 C          63.3133   87.4389   13.7551 C.3     1  UNL1        0.1577
      7 C          62.2895   88.0189   12.8249 C.2     1  UNL1        0.2445
      8 O          61.8754   89.4538   12.9658 O.2     1  UNL1       -0.2731
      9 N          61.6796   87.1641   11.7536 N.am    1  UNL1       -0.2705
     10 C          62.0937   85.7293   11.6127 C.3     1  UNL1        0.1359
     11 C          63.1175   85.1493   12.5430 C.3     1  UNL1        0.1908
     12 N          63.5315   83.7145   12.4021 N.am    1  UNL1       -0.1863
     13 C          62.9217   82.8596   11.3309 C.2     1  UNL1        0.3191
     14 O          61.8979   83.4396   10.4006 O.2     1  UNL1       -0.2512
     15 N          63.3357   81.4248   11.1899 N.am    1  UNL1       -0.2836
     16 H          64.0077   81.0441   11.8005 H       1  UNL1        0.1513
     17 C          64.9694   81.6996   13.1914 C.3     1  UNL1        0.1188
     18 C          62.7922   80.6378   14.1308 C.2     1  UNL1       -0.0034
     19 C          64.2868   80.6389   14.0030 C.2     1  UNL1       -0.0071
     20 C          63.9231   88.2937   14.8262 C.3     1  UNL1        0.0556
     21 C          64.4394   89.6616   14.4910 C.ar    1  UNL1       -0.0198
     22 C          64.8955   90.5801   15.5856 C.ar    1  UNL1       -0.0011
     23 C          65.4118   91.9480   15.2503 C.ar    1  UNL1        0.0363
     24 C          65.4719   92.3973   13.8205 C.ar    1  UNL1        0.1337
     25 O          65.9882   93.7652   13.4853 O.3     1  UNL1       -0.5055
     26 C          65.0157   91.4788   12.7258 C.ar    1  UNL1        0.0363
     27 C          64.4994   90.1109   13.0611 C.ar    1  UNL1       -0.0011
     28 H          66.2732   94.3390   14.1690 H       1  UNL1        0.2922
     29 C          60.6558   87.7441   10.8234 C.3     1  UNL1        0.1217
     30 C          61.0258   88.8781    9.9138 C.ar    1  UNL1        0.0135
     31 C          62.0576   89.8784   10.3437 C.ar    1  UNL1       -0.0012
     32 C          62.4276   91.0123    9.4342 C.ar    1  UNL1       -0.0002
     33 C          61.7659   91.1459    8.0948 C.ar    1  UNL1        0.0015
     34 C          60.7341   90.1456    7.6648 C.ar    1  UNL1        0.0170
     35 C          59.9185   90.0201    6.4122 C.ar    1  UNL1        0.0186
     36 C          59.0445   88.8086    6.5476 C.ar    1  UNL1        0.0759
     37 N          59.3199   88.1854    7.8838 N.ar    1  UNL1       -0.3242
     38 C          58.6658   86.9524    8.4332 C.3     1  UNL1        0.1305
     39 C          60.3641   89.0117    8.5744 C.ar    1  UNL1        0.0575
     40 C          59.9683   90.9440    5.2314 C.ar    1  UNL1        0.0016
     41 C          61.2766   91.2248    4.5535 C.ar    1  UNL1        0.0013
     42 C          61.3263   92.1486    3.3728 C.ar    1  UNL1        0.0147
     43 C          60.0678   92.7916    2.8700 C.ar    1  UNL1        0.0516
     44 C          58.7595   92.5107    3.5479 C.ar    1  UNL1        0.0147
     45 C          58.7098   91.5869    4.7286 C.ar    1  UNL1        0.0013
     46 N          60.1176   93.7154    1.6893 N.am    1  UNL1       -0.2683
     47 C          60.9804   93.3787    0.5094 C.2     1  UNL1        0.3044
     48 O          61.7935   92.1182    0.5102 O.2     1  UNL1       -0.2525
     49 N          61.0301   94.3026   -0.6713 N.am    1  UNL1       -0.2903
     50 H          59.5840   94.5427    1.6888 H       1  UNL1        0.1564
     51 H          60.4965   95.1299   -0.6718 H       1  UNL1        0.1509
     52 C          61.8930   93.9659   -1.8512 C.3     1  UNL1        0.0730
     53 C          63.3688   93.6999   -1.8168 C.3     1  UNL1        0.0196
     54 C          63.8194   93.4056   -3.2170 C.3     1  UNL1        0.0017
     55 C          62.6221   93.4898   -4.1167 C.3     1  UNL1        0.0017
     56 C          61.4315   93.8360   -3.2725 C.3     1  UNL1        0.0196
     57 C          62.7260   80.5700   10.1188 C.3     1  UNL1        0.1177
     58 C          63.0926   79.1190   10.0177 C.ar    1  UNL1       -0.0025
     59 C          64.0369   78.6568    8.9479 C.ar    1  UNL1       -0.0026
     60 C          64.4036   77.2058    8.8469 C.ar    1  UNL1       -0.0003
     61 C          63.8259   76.2170    9.8156 C.ar    1  UNL1       -0.0000
     62 C          62.8815   76.6792   10.8855 C.ar    1  UNL1       -0.0003
     63 C          62.5148   78.1302   10.9866 C.ar    1  UNL1       -0.0026
@<TRIPOS>BOND
     1    18    19    2
     2    19    17    1
     3    17     1    1
     4     1     2    1
     5     2     3    1
     6     3     4    2
     7     3     5   am
     8     5     6    1
     9     6    20    1
    10    20    21    1
    11    21    22   ar
    12    22    23   ar
    13    23    24   ar
    14    24    25    1
    15    24    26   ar
    16    26    27   ar
    17     6     7    1
    18     7     8    2
    19     7     9   am
    20     9    29    1
    21    29    30    1
    22    30    31   ar
    23    31    32   ar
    24    32    33   ar
    25    33    34   ar
    26    34    35   ar
    27    35    40    1
    28    40    41   ar
    29    41    42   ar
    30    42    43   ar
    31    43    46    1
    32    46    47   am
    33    47    48    2
    34    47    49   am
    35    49    52    1
    36    52    53    1
    37    53    54    1
    38    54    55    1
    39    55    56    1
    40    43    44   ar
    41    44    45   ar
    42    35    36   ar
    43    36    37   ar
    44    37    38    1
    45    37    39   ar
    46     9    10    1
    47    11    10    1
    48    11    12    1
    49    12    13   am
    50    13    14    2
    51    13    15   am
    52    15    57    1
    53    57    58    1
    54    58    59   ar
    55    59    60   ar
    56    60    61   ar
    57    61    62   ar
    58    62    63   ar
    59    12     1    1
    60    63    58   ar
    61    11     5    1
    62    27    21   ar
    63    39    30   ar
    64    39    34   ar
    65    45    40   ar
    66    56    52    1
    67    25    28    1
    68    46    50    1
    69    49    51    1
    70    15    16    1
