@<TRIPOS>MOLECULE
*****
 31 33 0 0 0
SMALL
GASTEIGER

@<TRIPOS>ATOM
      1 C          63.9580   90.8468   14.5707 C.ar    1  UNL1        0.1357
      2 N          64.7823   91.4773   15.6537 N.ar    1  UNL1       -0.1992
      3 C          65.7951   92.5288   15.3096 C.ar    1  UNL1        0.2148
      4 N          66.6194   93.1592   16.3928 N.pl3   1  UNL1       -0.3274
      5 N          65.9837   92.9499   13.8824 N.ar    1  UNL1       -0.2138
      6 C          65.1594   92.3195   12.7992 C.ar    1  UNL1        0.0898
      7 C          65.3479   92.7406   11.3720 C.ar    1  UNL1        0.0195
      8 C          64.5237   92.1102   10.2889 C.ar    1  UNL1        0.0047
      9 C          63.5109   91.0587   10.6330 C.ar    1  UNL1        0.0371
     10 C          63.3223   90.6375   12.0603 C.ar    1  UNL1        0.1432
     11 C          64.1466   91.2680   13.1433 C.ar    1  UNL1        0.0831
     12 H          66.4956   92.8828   17.3295 H       1  UNL1        0.1452
     13 H          67.2841   93.8494   16.1669 H       1  UNL1        0.1452
     14 N          62.9452   89.7953   14.9148 N.pl3   1  UNL1       -0.3179
     15 H          62.4082   89.3774   14.2033 H       1  UNL1        0.1482
     16 C          62.7505   89.3804   16.3431 C.3     1  UNL1        0.0882
     17 C          63.3355   88.0900   16.8356 C.3     1  UNL1        0.0212
     18 C          62.4247   85.6767   17.1468 C.3     1  UNL1        0.0001
     19 C          62.4749   87.1120   17.5795 C.3     1  UNL1        0.0017
     20 O          62.3095   89.5860   12.4044 O.3     1  UNL1       -0.4687
     21 C          62.2500   88.3140   11.6117 C.3     1  UNL1        0.2540
     22 C          62.7903   87.0415   12.1938 C.ar    1  UNL1        0.1395
     23 N          63.6327   87.0826   13.4343 N.ar    1  UNL1       -0.2412
     24 C          64.1730   85.8101   14.0164 C.ar    1  UNL1        0.1019
     25 C          63.8710   84.4966   13.3580 C.ar    1  UNL1        0.0607
     26 C          63.0287   84.4555   12.1175 C.ar    1  UNL1        0.1752
     27 C          62.4883   85.7280   11.5354 C.ar    1  UNL1        0.1894
     28 O          62.7267   83.1420   11.4592 O.3     1  UNL1       -0.4683
     29 C          63.8021   82.4151   10.7075 C.3     1  UNL1        0.2526
     30 O          61.6460   85.6870   10.2950 O.3     1  UNL1       -0.4670
     31 C          62.2808   85.8853    8.9504 C.3     1  UNL1        0.2527
@<TRIPOS>BOND
     1    18    19    1
     2    19    17    1
     3    17    16    1
     4    16    14    1
     5    14     1    1
     6     1     2   ar
     7     2     3   ar
     8     3     4    1
     9     3     5   ar
    10     5     6   ar
    11     6     7   ar
    12     7     8   ar
    13     8     9   ar
    14     9    10   ar
    15    10    20    1
    16    20    21    1
    17    21    22    1
    18    22    23   ar
    19    23    24   ar
    20    24    25   ar
    21    25    26   ar
    22    26    28    1
    23    28    29    1
    24    26    27   ar
    25    27    30    1
    26    30    31    1
    27    10    11   ar
    28    11     1   ar
    29    11     6   ar
    30    27    22   ar
    31    14    15    1
    32     4    12    1
    33     4    13    1
@<TRIPOS>MOLECULE
*****
 31 33 0 0 0
SMALL
GASTEIGER

@<TRIPOS>ATOM
      1 C          63.9433   90.9847   14.6921 C.ar    1  UNL1        0.1357
      2 N          64.8358   91.6009   15.7282 N.ar    1  UNL1       -0.1992
      3 C          65.9020   92.5729   15.3175 C.ar    1  UNL1        0.2148
      4 N          66.7945   93.1891   16.3537 N.pl3   1  UNL1       -0.3274
      5 N          66.0756   92.9285   13.8707 N.ar    1  UNL1       -0.2138
      6 C          65.1830   92.3123   12.8345 C.ar    1  UNL1        0.0898
      7 C          65.3566   92.6680   11.3877 C.ar    1  UNL1        0.0195
      8 C          64.4641   92.0517   10.3516 C.ar    1  UNL1        0.0047
      9 C          63.3979   91.0798   10.7623 C.ar    1  UNL1        0.0371
     10 C          63.2243   90.7241   12.2091 C.ar    1  UNL1        0.1432
     11 C          64.1169   91.3404   13.2452 C.ar    1  UNL1        0.0831
     12 H          66.6806   92.9557   17.3033 H       1  UNL1        0.1452
     13 H          67.4943   93.8270   16.0841 H       1  UNL1        0.1452
     14 N          62.8771   90.0128   15.1028 N.pl3   1  UNL1       -0.3179
     15 H          62.0524   89.9331   14.5711 H       1  UNL1        0.1482
     16 C          63.0676   89.1622   16.3235 C.3     1  UNL1        0.0882
     17 C          63.4945   87.7313   16.1815 C.3     1  UNL1        0.0212
     18 C          64.7076   85.8684   14.8368 C.3     1  UNL1        0.0001
     19 C          64.3036   87.3045   14.9926 C.3     1  UNL1        0.0017
     20 O          62.1582   89.7522   12.6198 O.3     1  UNL1       -0.4687
     21 C          61.3071   89.0882   11.5783 C.3     1  UNL1        0.2540
     22 C          61.6797   87.7313   11.0587 C.ar    1  UNL1        0.1395
     23 N          62.3153   86.7265   11.9733 N.ar    1  UNL1       -0.2412
     24 C          62.6879   85.3696   11.4537 C.ar    1  UNL1        0.1019
     25 C          62.4250   85.0175   10.0194 C.ar    1  UNL1        0.0607
     26 C          61.7895   86.0223    9.1049 C.ar    1  UNL1        0.1752
     27 C          61.4168   87.3792    9.6245 C.ar    1  UNL1        0.1894
     28 O          61.5266   85.6703    7.6707 O.3     1  UNL1       -0.4683
     29 C          62.5054   84.8208    6.9154 C.3     1  UNL1        0.2526
     30 O          60.7813   88.3840    8.7100 O.3     1  UNL1       -0.4670
     31 C          59.4039   88.1398    8.1686 C.3     1  UNL1        0.2527
@<TRIPOS>BOND
     1    18    19    1
     2    19    17    1
     3    17    16    1
     4    16    14    1
     5    14     1    1
     6     1     2   ar
     7     2     3   ar
     8     3     4    1
     9     3     5   ar
    10     5     6   ar
    11     6     7   ar
    12     7     8   ar
    13     8     9   ar
    14     9    10   ar
    15    10    20    1
    16    20    21    1
    17    21    22    1
    18    22    23   ar
    19    23    24   ar
    20    24    25   ar
    21    25    26   ar
    22    26    28    1
    23    28    29    1
    24    26    27   ar
    25    27    30    1
    26    30    31    1
    27    10    11   ar
    28    11     1   ar
    29    11     6   ar
    30    27    22   ar
    31    14    15    1
    32     4    12    1
    33     4    13    1
@<TRIPOS>MOLECULE
*****
 31 33 0 0 0
SMALL
GASTEIGER

@<TRIPOS>ATOM
      1 C          63.8449   90.8377   14.7571 C.ar    1  UNL1        0.1357
      2 N          64.7258   91.4880   15.7823 N.ar    1  UNL1       -0.1992
      3 C          65.7702   92.4764   15.3554 C.ar    1  UNL1        0.2148
      4 N          66.6511   93.1267   16.3807 N.pl3   1  UNL1       -0.3274
      5 N          65.9337   92.8146   13.9032 N.ar    1  UNL1       -0.2138
      6 C          65.0528   92.1643   12.8779 C.ar    1  UNL1        0.0898
      7 C          65.2163   92.5024   11.4257 C.ar    1  UNL1        0.0195
      8 C          64.3354   91.8521   10.4005 C.ar    1  UNL1        0.0047
      9 C          63.2910   90.8637   10.8274 C.ar    1  UNL1        0.0371
     10 C          63.1275   90.5256   12.2796 C.ar    1  UNL1        0.1432
     11 C          64.0084   91.1759   13.3048 C.ar    1  UNL1        0.0831
     12 H          66.5438   92.9048   17.3338 H       1  UNL1        0.1452
     13 H          67.3366   93.7755   16.1005 H       1  UNL1        0.1452
     14 N          62.8006   89.8493   15.1841 N.pl3   1  UNL1       -0.3179
     15 H          61.9667   89.7606   14.6683 H       1  UNL1        0.1482
     16 C          63.0266   88.9961   16.3969 C.3     1  UNL1        0.0882
     17 C          63.5604   87.6026   16.2447 C.3     1  UNL1        0.0212
     18 C          64.3916   85.7703   14.6009 C.3     1  UNL1        0.0001
     19 C          64.2976   87.2139   14.9974 C.3     1  UNL1        0.0017
     20 O          62.0831   89.5372   12.7066 O.3     1  UNL1       -0.4687
     21 C          60.6909   89.6324   12.1565 C.3     1  UNL1        0.2540
     22 C          60.4060   89.1818   10.7544 C.ar    1  UNL1        0.1395
     23 N          59.9848   90.1799    9.7169 N.ar    1  UNL1       -0.2412
     24 C          59.6999   89.7293    8.3148 C.ar    1  UNL1        0.1019
     25 C          59.8362   88.2806    7.9503 C.ar    1  UNL1        0.0607
     26 C          60.2575   87.2826    8.9878 C.ar    1  UNL1        0.1752
     27 C          60.5424   87.7332   10.3899 C.ar    1  UNL1        0.1894
     28 O          60.3938   85.8340    8.6233 O.3     1  UNL1       -0.4683
     29 C          61.0515   85.4440    7.3328 C.3     1  UNL1        0.2526
     30 O          60.9636   86.7352   11.4274 O.3     1  UNL1       -0.4670
     31 C          62.3769   86.2332   11.4551 C.3     1  UNL1        0.2527
@<TRIPOS>BOND
     1    18    19    1
     2    19    17    1
     3    17    16    1
     4    16    14    1
     5    14     1    1
     6     1     2   ar
     7     2     3   ar
     8     3     4    1
     9     3     5   ar
    10     5     6   ar
    11     6     7   ar
    12     7     8   ar
    13     8     9   ar
    14     9    10   ar
    15    10    20    1
    16    20    21    1
    17    21    22    1
    18    22    23   ar
    19    23    24   ar
    20    24    25   ar
    21    25    26   ar
    22    26    28    1
    23    28    29    1
    24    26    27   ar
    25    27    30    1
    26    30    31    1
    27    10    11   ar
    28    11     1   ar
    29    11     6   ar
    30    27    22   ar
    31    14    15    1
    32     4    12    1
    33     4    13    1
@<TRIPOS>MOLECULE
*****
 31 33 0 0 0
SMALL
GASTEIGER

@<TRIPOS>ATOM
      1 C          63.4497   85.4929   13.3149 C.ar    1  UNL1        0.1357
      2 N          63.4986   83.9996   13.4483 N.ar    1  UNL1       -0.1992
      3 C          63.0128   83.1302   12.3266 C.ar    1  UNL1        0.2148
      4 N          63.0617   81.6369   12.4600 N.pl3   1  UNL1       -0.3274
      5 N          62.4781   83.7540   11.0717 N.ar    1  UNL1       -0.2138
      6 C          62.4292   85.2473   10.9383 C.ar    1  UNL1        0.0898
      7 C          61.8944   85.8710    9.6834 C.ar    1  UNL1        0.0195
      8 C          61.8455   87.3643    9.5501 C.ar    1  UNL1        0.0047
      9 C          62.3313   88.2337   10.6717 C.ar    1  UNL1        0.0371
     10 C          62.8661   87.6099   11.9266 C.ar    1  UNL1        0.1432
     11 C          62.9150   86.1167   12.0599 C.ar    1  UNL1        0.0831
     12 H          63.4127   81.2275   13.2837 H       1  UNL1        0.1452
     13 H          62.7429   81.0662   11.7239 H       1  UNL1        0.1452
     14 N          63.9356   86.3623   14.4366 N.pl3   1  UNL1       -0.3179
     15 H          64.1429   87.3103   14.2702 H       1  UNL1        0.1482
     16 C          64.1054   85.7875   15.8116 C.3     1  UNL1        0.0882
     17 C          62.9497   85.7759   16.7676 C.3     1  UNL1        0.0212
     18 C          63.0880   88.3488   17.1006 C.3     1  UNL1        0.0001
     19 C          62.6295   87.0007   17.5722 C.3     1  UNL1        0.0017
     20 O          63.3519   88.4794   13.0482 O.3     1  UNL1       -0.4687
     21 C          62.9841   89.9331   13.0837 C.3     1  UNL1        0.2540
     22 C          63.9858   90.9705   12.6710 C.ar    1  UNL1        0.1395
     23 N          64.0050   91.4745   11.2582 N.ar    1  UNL1       -0.2412
     24 C          65.0068   92.5119   10.8456 C.ar    1  UNL1        0.1019
     25 C          65.9894   93.0453   11.8456 C.ar    1  UNL1        0.0607
     26 C          65.9702   92.5413   13.2583 C.ar    1  UNL1        0.1752
     27 C          64.9684   91.5040   13.6709 C.ar    1  UNL1        0.1894
     28 O          66.9527   93.0748   14.2582 O.3     1  UNL1       -0.4683
     29 C          68.1654   92.2699   14.6210 C.3     1  UNL1        0.2526
     30 O          64.9492   91.0000   15.0836 O.3     1  UNL1       -0.4670
     31 C          64.3109   91.8214   16.1643 C.3     1  UNL1        0.2527
@<TRIPOS>BOND
     1    18    19    1
     2    19    17    1
     3    17    16    1
     4    16    14    1
     5    14     1    1
     6     1     2   ar
     7     2     3   ar
     8     3     4    1
     9     3     5   ar
    10     5     6   ar
    11     6     7   ar
    12     7     8   ar
    13     8     9   ar
    14     9    10   ar
    15    10    20    1
    16    20    21    1
    17    21    22    1
    18    22    23   ar
    19    23    24   ar
    20    24    25   ar
    21    25    26   ar
    22    26    28    1
    23    28    29    1
    24    26    27   ar
    25    27    30    1
    26    30    31    1
    27    10    11   ar
    28    11     1   ar
    29    11     6   ar
    30    27    22   ar
    31    14    15    1
    32     4    12    1
    33     4    13    1
@<TRIPOS>MOLECULE
*****
 31 33 0 0 0
SMALL
GASTEIGER

@<TRIPOS>ATOM
      1 C          64.0427   90.1675   14.1476 C.ar    1  UNL1        0.1357
      2 N          64.9148   90.9698   15.0672 N.ar    1  UNL1       -0.1992
      3 C          65.6024   92.2035   14.5621 C.ar    1  UNL1        0.2148
      4 N          66.4746   93.0058   15.4818 N.pl3   1  UNL1       -0.3274
      5 N          65.4180   92.6349   13.1374 N.ar    1  UNL1       -0.2138
      6 C          64.5459   91.8326   12.2177 C.ar    1  UNL1        0.0898
      7 C          64.3615   92.2640   10.7930 C.ar    1  UNL1        0.0195
      8 C          63.4894   91.4617    9.8734 C.ar    1  UNL1        0.0047
      9 C          62.8017   90.2280   10.3785 C.ar    1  UNL1        0.0371
     10 C          62.9861   89.7966   11.8032 C.ar    1  UNL1        0.1432
     11 C          63.8582   90.5989   12.7228 C.ar    1  UNL1        0.0831
     12 H          66.5956   92.7227   16.4169 H       1  UNL1        0.1452
     13 H          66.9259   93.8155   15.1503 H       1  UNL1        0.1452
     14 N          63.3550   88.9338   14.6527 N.pl3   1  UNL1       -0.3179
     15 H          62.5818   88.5670   14.1660 H       1  UNL1        0.1482
     16 C          63.8454   88.2590   15.8993 C.3     1  UNL1        0.0882
     17 C          63.0346   88.3303   17.1593 C.3     1  UNL1        0.0212
     18 C          62.4483   85.7993   17.1577 C.3     1  UNL1        0.0001
     19 C          62.6989   87.0742   17.9073 C.3     1  UNL1        0.0017
     20 O          62.2985   88.5629   12.3083 O.3     1  UNL1       -0.4687
     21 C          61.4814   87.7230   11.3718 C.3     1  UNL1        0.2540
     22 C          62.1149   86.5691   10.6527 C.ar    1  UNL1        0.1395
     23 N          62.2512   86.5998    9.1591 N.ar    1  UNL1       -0.2412
     24 C          62.8847   85.4459    8.4400 C.ar    1  UNL1        0.1019
     25 C          63.3819   84.2613    9.2144 C.ar    1  UNL1        0.0607
     26 C          63.2456   84.2306   10.7078 C.ar    1  UNL1        0.1752
     27 C          62.6121   85.3846   11.4270 C.ar    1  UNL1        0.1894
     28 O          63.7427   83.0461   11.4821 O.3     1  UNL1       -0.4683
     29 C          63.0894   81.7073   11.3065 C.3     1  UNL1        0.2526
     30 O          62.4758   85.3539   12.9204 O.3     1  UNL1       -0.4670
     31 C          63.7013   85.3500   13.7855 C.3     1  UNL1        0.2527
@<TRIPOS>BOND
     1    18    19    1
     2    19    17    1
     3    17    16    1
     4    16    14    1
     5    14     1    1
     6     1     2   ar
     7     2     3   ar
     8     3     4    1
     9     3     5   ar
    10     5     6   ar
    11     6     7   ar
    12     7     8   ar
    13     8     9   ar
    14     9    10   ar
    15    10    20    1
    16    20    21    1
    17    21    22    1
    18    22    23   ar
    19    23    24   ar
    20    24    25   ar
    21    25    26   ar
    22    26    28    1
    23    28    29    1
    24    26    27   ar
    25    27    30    1
    26    30    31    1
    27    10    11   ar
    28    11     1   ar
    29    11     6   ar
    30    27    22   ar
    31    14    15    1
    32     4    12    1
    33     4    13    1
@<TRIPOS>MOLECULE
*****
 31 33 0 0 0
SMALL
GASTEIGER

@<TRIPOS>ATOM
      1 C          63.3617   85.8032   13.0748 C.ar    1  UNL1        0.1357
      2 N          63.3866   84.3037   13.1014 N.ar    1  UNL1       -0.1992
      3 C          62.8678   83.5240   11.9297 C.ar    1  UNL1        0.2148
      4 N          62.8927   82.0244   11.9565 N.pl3   1  UNL1       -0.3274
      5 N          62.3240   84.2438   10.7314 N.ar    1  UNL1       -0.2138
      6 C          62.2991   85.7434   10.7047 C.ar    1  UNL1        0.0898
      7 C          61.7553   86.4632    9.5063 C.ar    1  UNL1        0.0195
      8 C          61.7304   87.9628    9.4796 C.ar    1  UNL1        0.0047
      9 C          62.2492   88.7425   10.6513 C.ar    1  UNL1        0.0371
     10 C          62.7930   88.0227   11.8497 C.ar    1  UNL1        0.1432
     11 C          62.8179   86.5231   11.8763 C.ar    1  UNL1        0.0831
     12 H          63.2496   81.5520   12.7430 H       1  UNL1        0.1452
     13 H          62.5522   81.5126   11.1875 H       1  UNL1        0.1452
     14 N          63.8805   86.5829   14.2464 N.pl3   1  UNL1       -0.3179
     15 H          64.0167   87.5549   14.1695 H       1  UNL1        0.1482
     16 C          64.1919   85.8817   15.5353 C.3     1  UNL1        0.0882
     17 C          63.0892   85.5618   16.5005 C.3     1  UNL1        0.0212
     18 C          62.9868   88.0251   17.3201 C.3     1  UNL1        0.0001
     19 C          62.6757   86.5726   17.5288 C.3     1  UNL1        0.0017
     20 O          63.3118   88.8024   13.0214 O.3     1  UNL1       -0.4687
     21 C          63.6757   90.2483   12.8581 C.3     1  UNL1        0.2540
     22 C          64.2737   91.0055   14.0067 C.ar    1  UNL1        0.1395
     23 N          63.6360   90.9380   15.3627 N.ar    1  UNL1       -0.2412
     24 C          64.2340   91.6952   16.5112 C.ar    1  UNL1        0.1019
     25 C          65.4697   92.5199   16.3037 C.ar    1  UNL1        0.0607
     26 C          66.1074   92.5873   14.9476 C.ar    1  UNL1        0.1752
     27 C          65.5094   91.8301   13.7991 C.ar    1  UNL1        0.1894
     28 O          67.3430   93.4119   14.7401 O.3     1  UNL1       -0.4683
     29 C          68.6735   92.8999   15.2068 C.3     1  UNL1        0.2526
     30 O          66.1470   91.8976   12.4431 O.3     1  UNL1       -0.4670
     31 C          65.7744   92.9969   11.4930 C.3     1  UNL1        0.2527
@<TRIPOS>BOND
     1    18    19    1
     2    19    17    1
     3    17    16    1
     4    16    14    1
     5    14     1    1
     6     1     2   ar
     7     2     3   ar
     8     3     4    1
     9     3     5   ar
    10     5     6   ar
    11     6     7   ar
    12     7     8   ar
    13     8     9   ar
    14     9    10   ar
    15    10    20    1
    16    20    21    1
    17    21    22    1
    18    22    23   ar
    19    23    24   ar
    20    24    25   ar
    21    25    26   ar
    22    26    28    1
    23    28    29    1
    24    26    27   ar
    25    27    30    1
    26    30    31    1
    27    10    11   ar
    28    11     1   ar
    29    11     6   ar
    30    27    22   ar
    31    14    15    1
    32     4    12    1
    33     4    13    1
@<TRIPOS>MOLECULE
*****
 31 33 0 0 0
SMALL
GASTEIGER

@<TRIPOS>ATOM
      1 C          62.7358   85.4997   11.5186 C.ar    1  UNL1        0.1357
      2 N          62.5376   84.0714   11.1059 N.ar    1  UNL1       -0.1992
      3 C          63.0055   82.9608   11.9990 C.ar    1  UNL1        0.2148
      4 N          62.8072   81.5323   11.5862 N.pl3   1  UNL1       -0.3274
      5 N          63.6716   83.2786   13.3048 N.ar    1  UNL1       -0.2138
      6 C          63.8698   84.7070   13.7176 C.ar    1  UNL1        0.0898
      7 C          64.5359   85.0248   15.0234 C.ar    1  UNL1        0.0195
      8 C          64.7342   86.4532   15.4361 C.ar    1  UNL1        0.0047
      9 C          64.2662   87.5638   14.5430 C.ar    1  UNL1        0.0371
     10 C          63.6001   87.2460   13.2372 C.ar    1  UNL1        0.1432
     11 C          63.4019   85.8176   12.8245 C.ar    1  UNL1        0.0831
     12 H          62.3700   81.3237   10.7291 H       1  UNL1        0.1452
     13 H          63.1143   80.8034   12.1724 H       1  UNL1        0.1452
     14 N          62.2679   86.6103   10.6255 N.pl3   1  UNL1       -0.3179
     15 H          62.8775   87.3492   10.3981 H       1  UNL1        0.1482
     16 C          60.8711   86.5952   10.0788 C.3     1  UNL1        0.0882
     17 C          60.6328   86.2465    8.6395 C.3     1  UNL1        0.0212
     18 C          59.3114   88.2092    7.5662 C.3     1  UNL1        0.0001
     19 C          59.4110   86.7590    7.9361 C.3     1  UNL1        0.0017
     20 O          63.1322   88.3566   12.3441 O.3     1  UNL1       -0.4687
     21 C          62.9434   89.7369   12.8999 C.3     1  UNL1        0.2540
     22 C          63.9234   90.8215   12.5634 C.ar    1  UNL1        0.1395
     23 N          63.9577   91.3985   11.1792 N.ar    1  UNL1       -0.2412
     24 C          64.9377   92.4830   10.8428 C.ar    1  UNL1        0.1019
     25 C          65.8836   92.9906   11.8906 C.ar    1  UNL1        0.0607
     26 C          65.8494   92.4136   13.2747 C.ar    1  UNL1        0.1752
     27 C          64.8693   91.3290   13.6111 C.ar    1  UNL1        0.1894
     28 O          66.7952   92.9211   14.3224 O.3     1  UNL1       -0.4683
     29 C          68.1588   92.3116   14.4605 C.3     1  UNL1        0.2526
     30 O          64.8350   90.7520   14.9953 O.3     1  UNL1       -0.4670
     31 C          64.0918   91.4640   16.0865 C.3     1  UNL1        0.2527
@<TRIPOS>BOND
     1    18    19    1
     2    19    17    1
     3    17    16    1
     4    16    14    1
     5    14     1    1
     6     1     2   ar
     7     2     3   ar
     8     3     4    1
     9     3     5   ar
    10     5     6   ar
    11     6     7   ar
    12     7     8   ar
    13     8     9   ar
    14     9    10   ar
    15    10    20    1
    16    20    21    1
    17    21    22    1
    18    22    23   ar
    19    23    24   ar
    20    24    25   ar
    21    25    26   ar
    22    26    28    1
    23    28    29    1
    24    26    27   ar
    25    27    30    1
    26    30    31    1
    27    10    11   ar
    28    11     1   ar
    29    11     6   ar
    30    27    22   ar
    31    14    15    1
    32     4    12    1
    33     4    13    1
@<TRIPOS>MOLECULE
*****
 31 33 0 0 0
SMALL
GASTEIGER

@<TRIPOS>ATOM
      1 C          65.5688   92.0783   13.1691 C.ar    1  UNL1        0.1357
      2 N          66.3911   93.2403   12.6965 N.ar    1  UNL1       -0.1992
      3 C          66.1814   93.7967   11.3194 C.ar    1  UNL1        0.2148
      4 N          67.0038   94.9589   10.8468 N.pl3   1  UNL1       -0.3274
      5 N          65.1495   93.1911   10.4149 N.ar    1  UNL1       -0.2138
      6 C          64.3271   92.0290   10.8875 C.ar    1  UNL1        0.0898
      7 C          63.2951   91.4233    9.9830 C.ar    1  UNL1        0.0195
      8 C          62.4728   90.2613   10.4556 C.ar    1  UNL1        0.0047
      9 C          62.6825   89.7049   11.8327 C.ar    1  UNL1        0.0371
     10 C          63.7145   90.3105   12.7372 C.ar    1  UNL1        0.1432
     11 C          64.5368   91.4726   12.2646 C.ar    1  UNL1        0.0831
     12 H          67.6811   95.3564   11.4405 H       1  UNL1        0.1452
     13 H          66.8662   95.3241    9.9430 H       1  UNL1        0.1452
     14 N          65.7785   91.5219   14.5462 N.pl3   1  UNL1       -0.3179
     15 H          65.7887   90.5476   14.6872 H       1  UNL1        0.1482
     16 C          65.9725   92.4499   15.7086 C.3     1  UNL1        0.0882
     17 C          67.3164   92.5576   16.3661 C.3     1  UNL1        0.0212
     18 C          69.3348   94.1361   15.9361 C.3     1  UNL1        0.0001
     19 C          68.5202   92.9357   15.5547 C.3     1  UNL1        0.0017
     20 O          63.9241   89.7541   14.1143 O.3     1  UNL1       -0.4687
     21 C          64.4260   88.3513   14.2880 C.3     1  UNL1        0.2540
     22 C          63.7992   87.4518   15.3117 C.ar    1  UNL1        0.1395
     23 N          63.2361   88.0316   16.5754 N.ar    1  UNL1       -0.2412
     24 C          62.6092   87.1321   17.5991 C.ar    1  UNL1        0.1019
     25 C          62.5454   85.6528   17.3590 C.ar    1  UNL1        0.0607
     26 C          63.1084   85.0730   16.0954 C.ar    1  UNL1        0.1752
     27 C          63.7353   85.9725   15.0717 C.ar    1  UNL1        0.1894
     28 O          63.0445   83.5938   15.8554 O.3     1  UNL1       -0.4683
     29 C          62.0875   83.0389   14.8423 C.3     1  UNL1        0.2526
     30 O          64.2983   85.3928   13.8081 O.3     1  UNL1       -0.4670
     31 C          63.4085   85.1786   12.6196 C.3     1  UNL1        0.2527
@<TRIPOS>BOND
     1    18    19    1
     2    19    17    1
     3    17    16    1
     4    16    14    1
     5    14     1    1
     6     1     2   ar
     7     2     3   ar
     8     3     4    1
     9     3     5   ar
    10     5     6   ar
    11     6     7   ar
    12     7     8   ar
    13     8     9   ar
    14     9    10   ar
    15    10    20    1
    16    20    21    1
    17    21    22    1
    18    22    23   ar
    19    23    24   ar
    20    24    25   ar
    21    25    26   ar
    22    26    28    1
    23    28    29    1
    24    26    27   ar
    25    27    30    1
    26    30    31    1
    27    10    11   ar
    28    11     1   ar
    29    11     6   ar
    30    27    22   ar
    31    14    15    1
    32     4    12    1
    33     4    13    1
@<TRIPOS>MOLECULE
*****
 31 33 0 0 0
SMALL
GASTEIGER

@<TRIPOS>ATOM
      1 C          63.0876   89.2275   11.9356 C.ar    1  UNL1        0.1357
      2 N          63.8885   90.4936   11.8614 N.ar    1  UNL1       -0.1992
      3 C          63.6540   91.4649   10.7426 C.ar    1  UNL1        0.2148
      4 N          64.4550   92.7310   10.6683 N.pl3   1  UNL1       -0.3274
      5 N          62.6186   91.1701    9.6981 N.ar    1  UNL1       -0.2138
      6 C          61.8176   89.9040    9.7724 C.ar    1  UNL1        0.0898
      7 C          60.7822   89.6092    8.7279 C.ar    1  UNL1        0.0195
      8 C          59.9813   88.3431    8.8022 C.ar    1  UNL1        0.0047
      9 C          60.2158   87.3718    9.9209 C.ar    1  UNL1        0.0371
     10 C          61.2512   87.6666   10.9654 C.ar    1  UNL1        0.1432
     11 C          62.0521   88.9327   10.8911 C.ar    1  UNL1        0.0831
     12 H          65.1346   92.9245   11.3539 H       1  UNL1        0.1452
     13 H          64.3011   93.3685    9.9341 H       1  UNL1        0.1452
     14 N          63.3221   88.2563   13.0544 N.pl3   1  UNL1       -0.3179
     15 H          62.8523   87.3911   13.0617 H       1  UNL1        0.1482
     16 C          64.2723   88.6031   14.1620 C.3     1  UNL1        0.0882
     17 C          63.8943   89.6409   15.1770 C.3     1  UNL1        0.0212
     18 C          63.0619   88.0670   17.0691 C.3     1  UNL1        0.0001
     19 C          62.8986   89.3129   16.2499 C.3     1  UNL1        0.0017
     20 O          61.4857   86.6953   12.0842 O.3     1  UNL1       -0.4687
     21 C          62.2443   85.4267   11.8293 C.3     1  UNL1        0.2540
     22 C          62.8113   84.6480   12.9792 C.ar    1  UNL1        0.1395
     23 N          63.1830   85.3516   14.2508 N.ar    1  UNL1       -0.2412
     24 C          63.7499   84.5728   15.4006 C.ar    1  UNL1        0.1019
     25 C          63.9451   83.0905   15.2789 C.ar    1  UNL1        0.0607
     26 C          63.5734   82.3870   14.0074 C.ar    1  UNL1        0.1752
     27 C          63.0065   83.1658   12.8575 C.ar    1  UNL1        0.1894
     28 O          63.7686   80.9048   13.8857 O.3     1  UNL1       -0.4683
     29 C          62.5813   80.0029   13.7216 C.3     1  UNL1        0.2526
     30 O          62.6347   82.4623   11.5860 O.3     1  UNL1       -0.4670
     31 C          63.6871   82.1606   10.5604 C.3     1  UNL1        0.2527
@<TRIPOS>BOND
     1    18    19    1
     2    19    17    1
     3    17    16    1
     4    16    14    1
     5    14     1    1
     6     1     2   ar
     7     2     3   ar
     8     3     4    1
     9     3     5   ar
    10     5     6   ar
    11     6     7   ar
    12     7     8   ar
    13     8     9   ar
    14     9    10   ar
    15    10    20    1
    16    20    21    1
    17    21    22    1
    18    22    23   ar
    19    23    24   ar
    20    24    25   ar
    21    25    26   ar
    22    26    28    1
    23    28    29    1
    24    26    27   ar
    25    27    30    1
    26    30    31    1
    27    10    11   ar
    28    11     1   ar
    29    11     6   ar
    30    27    22   ar
    31    14    15    1
    32     4    12    1
    33     4    13    1
