@<TRIPOS>MOLECULE
*****
 28 31 0 0 0
SMALL
GASTEIGER

@<TRIPOS>ATOM
      1 C          60.8552   89.6423   10.0628 C.3     1  UNL1        0.0364
      2 O          59.6635   90.1502   12.3150 O.3     1  UNL1       -0.3820
      3 C          60.0075   90.5450   10.9093 C.3     1  UNL1        0.1375
      4 H          59.1137   90.8396   12.7191 H       1  UNL1        0.2104
      5 C          62.3398   89.8476   10.0016 C.3     1  UNL1        0.0290
      6 C          63.1151   90.0967   11.2614 C.ar    1  UNL1       -0.0189
      7 C          63.1559   89.0512   12.3361 C.ar    1  UNL1       -0.0009
      8 C          63.9311   89.3004   13.5958 C.ar    1  UNL1        0.0399
      9 C          64.6656   90.5951   13.7808 C.ar    1  UNL1        0.1764
     10 C          64.6248   91.6407   12.7060 C.ar    1  UNL1        0.1761
     11 C          63.8496   91.3916   11.4463 C.ar    1  UNL1        0.0359
     12 O          65.4411   92.8116   13.1671 O.3     1  UNL1       -0.4346
     13 C          65.9865   92.4896   14.5269 C.3     1  UNL1        0.4294
     14 O          65.5072   91.1198   14.9062 O.3     1  UNL1       -0.4346
     15 C          60.2182   88.5343    9.2775 C.3     1  UNL1        0.0364
     16 C          59.7312   88.7883    7.8817 C.3     1  UNL1        0.1375
     17 O          58.6118   87.9653    7.3165 O.3     1  UNL1       -0.3820
     18 H          58.9030   87.0449    7.2219 H       1  UNL1        0.2104
     19 C          60.0682   87.1725    9.8881 C.3     1  UNL1        0.0290
     20 C          61.2200   86.2116    9.8702 C.ar    1  UNL1       -0.0189
     21 C          61.9646   85.9569    8.5932 C.ar    1  UNL1       -0.0009
     22 C          63.1163   84.9961    8.5754 C.ar    1  UNL1        0.0399
     23 C          63.5233   84.2899    9.8346 C.ar    1  UNL1        0.1764
     24 C          62.7787   84.5445   11.1116 C.ar    1  UNL1        0.1761
     25 C          61.6270   85.5053   11.1294 C.ar    1  UNL1        0.0359
     26 O          63.4046   83.7078   12.1877 O.3     1  UNL1       -0.4346
     27 C          64.5359   82.9361   11.5758 C.3     1  UNL1        0.4294
     28 O          64.6093   83.2958   10.1216 O.3     1  UNL1       -0.4346
@<TRIPOS>BOND
     1     2     3    1
     2     1     3    1
     3     1     5    1
     4     5     6    1
     5     6     7   ar
     6     7     8   ar
     7     8     9   ar
     8     9    10   ar
     9    10    11   ar
    10    10    12    1
    11    12    13    1
    12    13    14    1
    13     1    15    1
    14    15    16    1
    15    16    17    1
    16    15    19    1
    17    19    20    1
    18    20    21   ar
    19    21    22   ar
    20    22    23   ar
    21    23    24   ar
    22    24    25   ar
    23    24    26    1
    24    26    27    1
    25    27    28    1
    26    11     6   ar
    27    25    20   ar
    28    14     9    1
    29    28    23    1
    30     2     4    1
    31    17    18    1
@<TRIPOS>MOLECULE
*****
 28 31 0 0 0
SMALL
GASTEIGER

@<TRIPOS>ATOM
      1 C          60.2269   88.5613    9.2357 C.3     1  UNL1        0.0364
      2 O          58.6948   87.9753    7.2209 O.3     1  UNL1       -0.3820
      3 C          59.7632   88.8307    7.8348 C.3     1  UNL1        0.1375
      4 H          58.5142   88.2816    6.3184 H       1  UNL1        0.2104
      5 C          60.0609   87.1945    9.8309 C.3     1  UNL1        0.0290
      6 C          61.2126   86.2334    9.8352 C.ar    1  UNL1       -0.0189
      7 C          61.9548   85.9464    8.5638 C.ar    1  UNL1       -0.0009
      8 C          63.1064   84.9854    8.5681 C.ar    1  UNL1        0.0399
      9 C          63.5159   84.3113    9.8440 C.ar    1  UNL1        0.1764
     10 C          62.7737   84.5982   11.1155 C.ar    1  UNL1        0.1761
     11 C          61.6221   85.5593   11.1112 C.ar    1  UNL1        0.0359
     12 O          63.4016   83.7891   12.2115 O.3     1  UNL1       -0.4346
     13 C          64.5318   83.0020   11.6172 C.3     1  UNL1        0.4294
     14 O          64.6025   83.3248   10.1540 O.3     1  UNL1       -0.4346
     15 C          60.8565   89.6587   10.0414 C.3     1  UNL1        0.0364
     16 C          60.0031   90.5391   10.9054 C.3     1  UNL1        0.1375
     17 O          59.6829   90.1265   12.3116 O.3     1  UNL1       -0.3820
     18 H          59.1306   89.3292   12.2968 H       1  UNL1        0.2104
     19 C          62.3396   89.8758    9.9829 C.3     1  UNL1        0.0290
     20 C          63.1136   90.1100   11.2464 C.ar    1  UNL1       -0.0189
     21 C          63.1347   89.0610   12.3184 C.ar    1  UNL1       -0.0009
     22 C          63.9087   89.2952   13.5817 C.ar    1  UNL1        0.0399
     23 C          64.6616   90.5784   13.7731 C.ar    1  UNL1        0.1764
     24 C          64.6404   91.6274   12.7011 C.ar    1  UNL1        0.1761
     25 C          63.8665   91.3932   11.4377 C.ar    1  UNL1        0.0359
     26 O          65.4723   92.7847   13.1686 O.3     1  UNL1       -0.4346
     27 C          66.0075   92.4509   14.5295 C.3     1  UNL1        0.4294
     28 O          65.5065   91.0874   14.9031 O.3     1  UNL1       -0.4346
@<TRIPOS>BOND
     1     2     3    1
     2     1     3    1
     3     1     5    1
     4     5     6    1
     5     6     7   ar
     6     7     8   ar
     7     8     9   ar
     8     9    10   ar
     9    10    11   ar
    10    10    12    1
    11    12    13    1
    12    13    14    1
    13     1    15    1
    14    15    16    1
    15    16    17    1
    16    15    19    1
    17    19    20    1
    18    20    21   ar
    19    21    22   ar
    20    22    23   ar
    21    23    24   ar
    22    24    25   ar
    23    24    26    1
    24    26    27    1
    25    27    28    1
    26    11     6   ar
    27    25    20   ar
    28    14     9    1
    29    28    23    1
    30     2     4    1
    31    17    18    1
@<TRIPOS>MOLECULE
*****
 28 31 0 0 0
SMALL
GASTEIGER

@<TRIPOS>ATOM
      1 C          61.1580   86.9162    9.0947 C.3     1  UNL1        0.0364
      2 O          59.9036   85.5546    7.2719 O.3     1  UNL1       -0.3820
      3 C          59.8746   86.4264    8.4922 C.3     1  UNL1        0.1375
      4 H          58.9961   85.3287    7.0143 H       1  UNL1        0.2104
      5 C          62.3917   86.0659    9.0252 C.3     1  UNL1        0.0290
      6 C          62.7551   85.1760   10.1769 C.ar    1  UNL1       -0.0189
      7 C          63.5701   83.9391    9.9409 C.ar    1  UNL1       -0.0009
      8 C          63.9334   83.0492   11.0924 C.ar    1  UNL1        0.0399
      9 C          63.4817   83.3963   12.4800 C.ar    1  UNL1        0.1764
     10 C          62.6667   84.6332   12.7161 C.ar    1  UNL1        0.1761
     11 C          62.3033   85.5231   11.5645 C.ar    1  UNL1        0.0359
     12 O          62.3663   84.7174   14.1833 O.3     1  UNL1       -0.4346
     13 C          62.9957   83.5325   14.8540 C.3     1  UNL1        0.4294
     14 O          63.6850   82.7160   13.8013 O.3     1  UNL1       -0.4346
     15 C          61.2076   88.2564    9.7666 C.3     1  UNL1        0.0364
     16 C          60.0160   88.7590   10.5264 C.3     1  UNL1        0.1375
     17 O          59.5834   88.0682   11.7856 O.3     1  UNL1       -0.3820
     18 H          59.2751   87.1732   11.5738 H       1  UNL1        0.2104
     19 C          62.4489   89.0939    9.6786 C.3     1  UNL1        0.0290
     20 C          62.9653   89.7997   10.8974 C.ar    1  UNL1       -0.0189
     21 C          63.6407   91.1322   10.7629 C.ar    1  UNL1       -0.0009
     22 C          64.1570   91.8378   11.9816 C.ar    1  UNL1        0.0399
     23 C          63.9980   91.2109   13.3350 C.ar    1  UNL1        0.1764
     24 C          63.3226   89.8783   13.4696 C.ar    1  UNL1        0.1761
     25 C          62.8063   89.1727   12.2508 C.ar    1  UNL1        0.0359
     26 O          63.3101   89.5098   14.9236 O.3     1  UNL1       -0.4346
     27 C          63.9777   90.6146   15.6875 C.3     1  UNL1        0.4294
     28 O          64.4029   91.6659   14.7058 O.3     1  UNL1       -0.4346
@<TRIPOS>BOND
     1     2     3    1
     2     1     3    1
     3     1     5    1
     4     5     6    1
     5     6     7   ar
     6     7     8   ar
     7     8     9   ar
     8     9    10   ar
     9    10    11   ar
    10    10    12    1
    11    12    13    1
    12    13    14    1
    13     1    15    1
    14    15    16    1
    15    16    17    1
    16    15    19    1
    17    19    20    1
    18    20    21   ar
    19    21    22   ar
    20    22    23   ar
    21    23    24   ar
    22    24    25   ar
    23    24    26    1
    24    26    27    1
    25    27    28    1
    26    11     6   ar
    27    25    20   ar
    28    14     9    1
    29    28    23    1
    30     2     4    1
    31    17    18    1
@<TRIPOS>MOLECULE
*****
 28 31 0 0 0
SMALL
GASTEIGER

@<TRIPOS>ATOM
      1 C          60.6636   87.1470    8.4116 C.3     1  UNL1        0.0364
      2 O          58.3079   86.3934    7.6160 O.3     1  UNL1       -0.3820
      3 C          59.7373   86.0681    7.9341 C.3     1  UNL1        0.1375
      4 H          57.8508   85.5895    7.3233 H       1  UNL1        0.2104
      5 C          62.0971   86.8250    8.7141 C.3     1  UNL1        0.0290
      6 C          62.4330   85.8487    9.8023 C.ar    1  UNL1       -0.0189
      7 C          61.9018   86.0594   11.1891 C.ar    1  UNL1       -0.0009
      8 C          62.2377   85.0832   12.2772 C.ar    1  UNL1        0.0399
      9 C          63.1049   83.8963   11.9786 C.ar    1  UNL1        0.1764
     10 C          63.6362   83.6856   10.5917 C.ar    1  UNL1        0.1761
     11 C          63.3003   84.6618    9.5035 C.ar    1  UNL1        0.0359
     12 O          64.4611   82.4328   10.5966 O.3     1  UNL1       -0.4346
     13 C          64.4396   81.8691   11.9865 C.3     1  UNL1        0.4294
     14 O          63.6014   82.7736   12.8406 O.3     1  UNL1       -0.4346
     15 C          60.1564   88.5477    8.5866 C.3     1  UNL1        0.0364
     16 C          59.8232   89.3804    7.3843 C.3     1  UNL1        0.1375
     17 O          58.6379   89.0301    6.5344 O.3     1  UNL1       -0.3820
     18 H          58.7911   88.1752    6.1024 H       1  UNL1        0.2104
     19 C          59.9825   89.1158    9.9639 C.3     1  UNL1        0.0290
     20 C          61.1620   89.6866   10.6941 C.ar    1  UNL1       -0.0189
     21 C          62.2243   90.4289    9.9389 C.ar    1  UNL1       -0.0009
     22 C          63.4037   90.9997   10.6692 C.ar    1  UNL1        0.0399
     23 C          63.5207   90.8281   12.1547 C.ar    1  UNL1        0.1764
     24 C          62.4584   90.0858   12.9100 C.ar    1  UNL1        0.1761
     25 C          61.2790   89.5150   12.1797 C.ar    1  UNL1        0.0359
     26 O          62.8420   90.0756   14.3600 O.3     1  UNL1       -0.4346
     27 C          64.1414   90.8116   14.5009 C.3     1  UNL1        0.4294
     28 O          64.5609   91.2766   13.1380 O.3     1  UNL1       -0.4346
@<TRIPOS>BOND
     1     2     3    1
     2     1     3    1
     3     1     5    1
     4     5     6    1
     5     6     7   ar
     6     7     8   ar
     7     8     9   ar
     8     9    10   ar
     9    10    11   ar
    10    10    12    1
    11    12    13    1
    12    13    14    1
    13     1    15    1
    14    15    16    1
    15    16    17    1
    16    15    19    1
    17    19    20    1
    18    20    21   ar
    19    21    22   ar
    20    22    23   ar
    21    23    24   ar
    22    24    25   ar
    23    24    26    1
    24    26    27    1
    25    27    28    1
    26    11     6   ar
    27    25    20   ar
    28    14     9    1
    29    28    23    1
    30     2     4    1
    31    17    18    1
@<TRIPOS>MOLECULE
*****
 28 31 0 0 0
SMALL
GASTEIGER

@<TRIPOS>ATOM
      1 C          63.8180   82.6475   13.0548 C.3     1  UNL1        0.0364
      2 O          63.7555   80.3473   14.2613 O.3     1  UNL1       -0.3820
      3 C          63.5829   81.1665   13.0166 C.3     1  UNL1        0.1375
      4 H          63.5665   79.4165   14.0645 H       1  UNL1        0.2104
      5 C          64.3713   83.3504   11.8508 C.3     1  UNL1        0.0290
      6 C          63.4992   84.2774   11.0568 C.ar    1  UNL1       -0.0189
      7 C          63.5729   84.2772    9.5587 C.ar    1  UNL1       -0.0009
      8 C          62.7008   85.2041    8.7647 C.ar    1  UNL1        0.0399
      9 C          61.7551   86.1312    9.4690 C.ar    1  UNL1        0.1764
     10 C          61.6814   86.1314   10.9672 C.ar    1  UNL1        0.1761
     11 C          62.5534   85.2045   11.7611 C.ar    1  UNL1        0.0359
     12 O          60.6604   87.1495   11.3809 O.3     1  UNL1       -0.4346
     13 C          60.1032   87.7785   10.1384 C.3     1  UNL1        0.4294
     14 O          60.7797   87.1492    8.9568 O.3     1  UNL1       -0.4346
     15 C          63.4997   83.4256   14.2971 C.3     1  UNL1        0.0364
     16 C          62.1509   83.2935   14.9399 C.3     1  UNL1        0.1375
     17 O          61.4128   81.9894   14.8735 O.3     1  UNL1       -0.3820
     18 H          61.1731   81.8000   13.9528 H       1  UNL1        0.2104
     19 C          64.5304   84.3357   14.8967 C.3     1  UNL1        0.0290
     20 C          64.1437   85.7138   15.3456 C.ar    1  UNL1       -0.0189
     21 C          63.3821   85.9001   16.6243 C.ar    1  UNL1       -0.0009
     22 C          62.9955   87.2782   17.0731 C.ar    1  UNL1        0.0399
     23 C          63.3706   88.4700   16.2431 C.ar    1  UNL1        0.1764
     24 C          64.1322   88.2837   14.9643 C.ar    1  UNL1        0.1761
     25 C          64.5188   86.9056   14.5156 C.ar    1  UNL1        0.0359
     26 O          64.3613   89.6373   14.3599 O.3     1  UNL1       -0.4346
     27 C          63.7412   90.6601   15.2650 C.3     1  UNL1        0.4294
     28 O          63.1289   89.9387   16.4289 O.3     1  UNL1       -0.4346
@<TRIPOS>BOND
     1     2     3    1
     2     1     3    1
     3     1     5    1
     4     5     6    1
     5     6     7   ar
     6     7     8   ar
     7     8     9   ar
     8     9    10   ar
     9    10    11   ar
    10    10    12    1
    11    12    13    1
    12    13    14    1
    13     1    15    1
    14    15    16    1
    15    16    17    1
    16    15    19    1
    17    19    20    1
    18    20    21   ar
    19    21    22   ar
    20    22    23   ar
    21    23    24   ar
    22    24    25   ar
    23    24    26    1
    24    26    27    1
    25    27    28    1
    26    11     6   ar
    27    25    20   ar
    28    14     9    1
    29    28    23    1
    30     2     4    1
    31    17    18    1
@<TRIPOS>MOLECULE
*****
 28 31 0 0 0
SMALL
GASTEIGER

@<TRIPOS>ATOM
      1 C          60.8046   87.1218    8.4992 C.3     1  UNL1        0.0364
      2 O          58.4658   86.3577    7.6648 O.3     1  UNL1       -0.3820
      3 C          59.9093   86.0563    7.9397 C.3     1  UNL1        0.1375
      4 H          58.0325   85.5665    7.3085 H       1  UNL1        0.2104
      5 C          62.2343   86.8054    8.8246 C.3     1  UNL1        0.0290
      6 C          62.5563   85.7496    9.8405 C.ar    1  UNL1       -0.0189
      7 C          63.2708   84.4991    9.4218 C.ar    1  UNL1       -0.0009
      8 C          63.5928   83.4434   10.4376 C.ar    1  UNL1        0.0399
      9 C          63.2003   83.6383   11.8721 C.ar    1  UNL1        0.1764
     10 C          62.4857   84.8890   12.2908 C.ar    1  UNL1        0.1761
     11 C          62.1637   85.9447   11.2751 C.ar    1  UNL1        0.0359
     12 O          62.2262   84.8029   13.7657 O.3     1  UNL1       -0.4346
     13 C          62.7803   83.4990   14.2585 C.3     1  UNL1        0.4294
     14 O          63.3823   82.7792   13.0882 O.3     1  UNL1       -0.4346
     15 C          60.2703   88.5037    8.7331 C.3     1  UNL1        0.0364
     16 C          59.8650   89.3582    7.5688 C.3     1  UNL1        0.1375
     17 O          58.7037   88.9536    6.7099 O.3     1  UNL1       -0.3820
     18 H          58.9190   88.1321    6.2412 H       1  UNL1        0.2104
     19 C          60.1414   89.0312   10.1314 C.3     1  UNL1        0.0290
     20 C          61.3227   89.6627   10.8066 C.ar    1  UNL1       -0.0189
     21 C          61.6273   89.3422   12.2399 C.ar    1  UNL1       -0.0009
     22 C          62.8086   89.9737   12.9150 C.ar    1  UNL1        0.0399
     23 C          63.6853   90.9258   12.1567 C.ar    1  UNL1        0.1764
     24 C          63.3807   91.2463   10.7234 C.ar    1  UNL1        0.1761
     25 C          62.1994   90.6148   10.0483 C.ar    1  UNL1        0.0359
     26 O          64.4166   92.2149   10.2348 O.3     1  UNL1       -0.4346
     27 C          65.3614   92.4929   11.3662 C.3     1  UNL1        0.4294
     28 O          64.9094   91.6962   12.5540 O.3     1  UNL1       -0.4346
@<TRIPOS>BOND
     1     2     3    1
     2     1     3    1
     3     1     5    1
     4     5     6    1
     5     6     7   ar
     6     7     8   ar
     7     8     9   ar
     8     9    10   ar
     9    10    11   ar
    10    10    12    1
    11    12    13    1
    12    13    14    1
    13     1    15    1
    14    15    16    1
    15    16    17    1
    16    15    19    1
    17    19    20    1
    18    20    21   ar
    19    21    22   ar
    20    22    23   ar
    21    23    24   ar
    22    24    25   ar
    23    24    26    1
    24    26    27    1
    25    27    28    1
    26    11     6   ar
    27    25    20   ar
    28    14     9    1
    29    28    23    1
    30     2     4    1
    31    17    18    1
@<TRIPOS>MOLECULE
*****
 28 31 0 0 0
SMALL
GASTEIGER

@<TRIPOS>ATOM
      1 C          61.8312   86.7346   10.8036 C.3     1  UNL1        0.0364
      2 O          60.3108   86.2530    8.7525 O.3     1  UNL1       -0.3820
      3 C          61.2873   85.7758    9.7863 C.3     1  UNL1        0.1375
      4 H          60.0612   85.5129    8.1774 H       1  UNL1        0.2104
      5 C          62.8986   86.2892   11.7587 C.3     1  UNL1        0.0290
      6 C          62.7495   84.9929   12.4988 C.ar    1  UNL1       -0.0189
      7 C          62.5577   84.9965   13.9864 C.ar    1  UNL1       -0.0009
      8 C          62.4086   83.7003   14.7265 C.ar    1  UNL1        0.0399
      9 C          62.4513   82.4006   13.9789 C.ar    1  UNL1        0.1764
     10 C          62.6431   82.3971   12.4912 C.ar    1  UNL1        0.1761
     11 C          62.7922   83.6932   11.7511 C.ar    1  UNL1        0.0359
     12 O          62.6439   80.9706   12.0273 O.3     1  UNL1       -0.4346
     13 C          62.4526   80.0926   13.2283 C.3     1  UNL1        0.4294
     14 O          62.3336   80.9763   14.4344 O.3     1  UNL1       -0.4346
     15 C          61.3076   88.1388   10.8657 C.3     1  UNL1        0.0364
     16 C          59.9945   88.4208   11.5338 C.3     1  UNL1        0.1375
     17 O          59.6043   89.8330   11.8550 O.3     1  UNL1       -0.3820
     18 H          60.2074   90.1906   12.5252 H       1  UNL1        0.2104
     19 C          62.0971   89.2612   10.2599 C.3     1  UNL1        0.0290
     20 C          62.9969   90.0960   11.1223 C.ar    1  UNL1       -0.0189
     21 C          63.2066   89.7307   12.5619 C.ar    1  UNL1       -0.0009
     22 C          64.1064   90.5655   13.4241 C.ar    1  UNL1        0.0399
     23 C          64.7964   91.7658   12.8467 C.ar    1  UNL1        0.1764
     24 C          64.5866   92.1311   11.4071 C.ar    1  UNL1        0.1761
     25 C          63.6868   91.2963   10.5449 C.ar    1  UNL1        0.0359
     26 O          65.3947   93.3615   11.1186 O.3     1  UNL1       -0.4346
     27 C          66.1038   93.7565   12.3800 C.3     1  UNL1        0.4294
     28 O          65.7341   92.7703   13.4479 O.3     1  UNL1       -0.4346
@<TRIPOS>BOND
     1     2     3    1
     2     1     3    1
     3     1     5    1
     4     5     6    1
     5     6     7   ar
     6     7     8   ar
     7     8     9   ar
     8     9    10   ar
     9    10    11   ar
    10    10    12    1
    11    12    13    1
    12    13    14    1
    13     1    15    1
    14    15    16    1
    15    16    17    1
    16    15    19    1
    17    19    20    1
    18    20    21   ar
    19    21    22   ar
    20    22    23   ar
    21    23    24   ar
    22    24    25   ar
    23    24    26    1
    24    26    27    1
    25    27    28    1
    26    11     6   ar
    27    25    20   ar
    28    14     9    1
    29    28    23    1
    30     2     4    1
    31    17    18    1
@<TRIPOS>MOLECULE
*****
 28 31 0 0 0
SMALL
GASTEIGER

@<TRIPOS>ATOM
      1 C          64.8995   91.1392   14.1277 C.3     1  UNL1        0.0364
      2 O          67.0437   92.5823   14.3930 O.3     1  UNL1       -0.3820
      3 C          66.3859   91.2371   14.3044 C.3     1  UNL1        0.1375
      4 H          68.0003   92.4676   14.5052 H       1  UNL1        0.2104
      5 C          64.0335   90.7198   15.2785 C.3     1  UNL1        0.0290
      6 C          63.8526   89.2635   15.5892 C.ar    1  UNL1       -0.0189
      7 C          63.1135   88.8467   16.8261 C.ar    1  UNL1       -0.0009
      8 C          62.9326   87.3904   17.1368 C.ar    1  UNL1        0.0399
      9 C          63.4907   86.3510   16.2105 C.ar    1  UNL1        0.1764
     10 C          64.2298   86.7677   14.9736 C.ar    1  UNL1        0.1761
     11 C          64.4107   88.2240   14.6628 C.ar    1  UNL1        0.0359
     12 O          64.6653   85.5261   14.2533 O.3     1  UNL1       -0.4346
     13 C          64.1953   84.3420   15.0451 C.3     1  UNL1        0.4294
     14 O          63.4694   84.8518   16.2548 O.3     1  UNL1       -0.4346
     15 C          64.2792   91.4607   12.8004 C.3     1  UNL1        0.0364
     16 C          65.1090   92.0800   11.7151 C.3     1  UNL1        0.1375
     17 O          65.4807   93.5312   11.7907 O.3     1  UNL1       -0.3820
     18 H          64.6808   94.0743   11.7132 H       1  UNL1        0.2104
     19 C          62.8291   91.1629   12.5584 C.3     1  UNL1        0.0290
     20 C          62.4364   90.0607   11.6197 C.ar    1  UNL1       -0.0189
     21 C          61.7057   90.3819   10.3497 C.ar    1  UNL1       -0.0009
     22 C          61.3130   89.2797    9.4111 C.ar    1  UNL1        0.0399
     23 C          61.6510   87.8563    9.7426 C.ar    1  UNL1        0.1764
     24 C          62.3817   87.5352   11.0126 C.ar    1  UNL1        0.1761
     25 C          62.7744   88.6374   11.9512 C.ar    1  UNL1        0.0359
     26 O          62.5774   86.0492   11.0717 O.3     1  UNL1       -0.4346
     27 C          61.9677   85.4520    9.8382 C.3     1  UNL1        0.4294
     28 O          61.3952   86.5688    9.0168 O.3     1  UNL1       -0.4346
@<TRIPOS>BOND
     1     2     3    1
     2     1     3    1
     3     1     5    1
     4     5     6    1
     5     6     7   ar
     6     7     8   ar
     7     8     9   ar
     8     9    10   ar
     9    10    11   ar
    10    10    12    1
    11    12    13    1
    12    13    14    1
    13     1    15    1
    14    15    16    1
    15    16    17    1
    16    15    19    1
    17    19    20    1
    18    20    21   ar
    19    21    22   ar
    20    22    23   ar
    21    23    24   ar
    22    24    25   ar
    23    24    26    1
    24    26    27    1
    25    27    28    1
    26    11     6   ar
    27    25    20   ar
    28    14     9    1
    29    28    23    1
    30     2     4    1
    31    17    18    1
@<TRIPOS>MOLECULE
*****
 28 31 0 0 0
SMALL
GASTEIGER

@<TRIPOS>ATOM
      1 C          63.3311   83.4722   13.7737 C.3     1  UNL1        0.0364
      2 O          62.3595   81.2397   14.6803 O.3     1  UNL1       -0.3820
      3 C          62.3761   82.7396   14.6688 C.3     1  UNL1        0.1375
      4 H          61.6894   80.9286   15.3088 H       1  UNL1        0.2104
      5 C          63.2953   83.2439   12.2916 C.3     1  UNL1        0.0290
      6 C          62.8017   84.3262   11.3777 C.ar    1  UNL1       -0.0189
      7 C          63.2408   84.3552    9.9439 C.ar    1  UNL1       -0.0009
      8 C          62.7473   85.4375    9.0300 C.ar    1  UNL1        0.0399
      9 C          61.8146   86.4908    9.5501 C.ar    1  UNL1        0.1764
     10 C          61.3754   86.4618   10.9841 C.ar    1  UNL1        0.1761
     11 C          61.8689   85.3796   11.8980 C.ar    1  UNL1        0.0359
     12 O          60.4565   87.6255   11.2111 O.3     1  UNL1       -0.4346
     13 C          60.3278   88.3737    9.9174 C.3     1  UNL1        0.4294
     14 O          61.1672   87.6724    8.8908 O.3     1  UNL1       -0.4346
     15 C          64.3220   84.4332   14.3608 C.3     1  UNL1        0.0364
     16 C          65.7307   84.4654   13.8465 C.3     1  UNL1        0.1375
     17 O          66.8330   85.0001   14.7119 O.3     1  UNL1       -0.3820
     18 H          66.6940   85.9479   14.8638 H       1  UNL1        0.2104
     19 C          63.9042   85.3620   15.4621 C.3     1  UNL1        0.0290
     20 C          63.8607   86.8416   15.2192 C.ar    1  UNL1       -0.0189
     21 C          64.0514   87.3800   13.8322 C.ar    1  UNL1       -0.0009
     22 C          64.0079   88.8596   13.5894 C.ar    1  UNL1        0.0399
     23 C          63.7738   89.8008   14.7337 C.ar    1  UNL1        0.1764
     24 C          63.5831   89.2624   16.1207 C.ar    1  UNL1        0.1761
     25 C          63.6266   87.7828   16.3635 C.ar    1  UNL1        0.0359
     26 O          63.3718   90.4253   17.0443 O.3     1  UNL1       -0.4346
     27 C          63.4319   91.6823   16.2280 C.3     1  UNL1        0.4294
     28 O          63.6803   91.2964   14.8001 O.3     1  UNL1       -0.4346
@<TRIPOS>BOND
     1     2     3    1
     2     1     3    1
     3     1     5    1
     4     5     6    1
     5     6     7   ar
     6     7     8   ar
     7     8     9   ar
     8     9    10   ar
     9    10    11   ar
    10    10    12    1
    11    12    13    1
    12    13    14    1
    13     1    15    1
    14    15    16    1
    15    16    17    1
    16    15    19    1
    17    19    20    1
    18    20    21   ar
    19    21    22   ar
    20    22    23   ar
    21    23    24   ar
    22    24    25   ar
    23    24    26    1
    24    26    27    1
    25    27    28    1
    26    11     6   ar
    27    25    20   ar
    28    14     9    1
    29    28    23    1
    30     2     4    1
    31    17    18    1
