@<TRIPOS>MOLECULE
*****
 31 34 0 0 0
SMALL
GASTEIGER

@<TRIPOS>ATOM
      1 C          71.5800   72.7101   16.3916 C.ar    1  UNL1        0.1431
      2 C          71.7466   73.3953   15.0678 C.ar    1  UNL1        0.0955
      3 C          71.8086   72.5856   13.8066 C.ar    1  UNL1        0.0955
      4 C          71.7040   71.0906   13.8694 C.ar    1  UNL1        0.1431
      5 C          71.5374   70.4053   15.1933 C.ar    1  UNL1        0.0371
      6 C          71.4328   68.9103   15.2561 C.ar    1  UNL1        0.0031
      7 C          71.2661   68.2250   16.5799 C.ar    1  UNL1        0.0001
      8 C          71.2041   69.0348   17.8410 C.ar    1  UNL1        0.0001
      9 C          71.3087   70.5298   17.7783 C.ar    1  UNL1        0.0031
     10 C          71.4754   71.2150   16.4544 C.ar    1  UNL1        0.0371
     11 C          71.9767   73.5325   12.6556 C.2     1  UNL1        0.2619
     12 O          72.0841   73.1513   11.2088 O.2     1  UNL1       -0.2690
     13 N          72.0186   74.9276   13.2052 N.am    1  UNL1       -0.2009
     14 C          71.8764   74.8427   14.6960 C.2     1  UNL1        0.2619
     15 O          71.8658   76.0019   15.6481 O.2     1  UNL1       -0.2690
     16 C          72.1752   76.1863   12.4046 C.ar    1  UNL1        0.0612
     17 C          73.4762   76.4823   11.7192 C.ar    1  UNL1        0.0150
     18 C          73.6328   77.7410   10.9186 C.ar    1  UNL1       -0.0026
     19 C          72.4884   78.7039   10.8035 C.ar    1  UNL1       -0.0165
     20 C          71.1875   78.4080   11.4890 C.ar    1  UNL1       -0.0026
     21 C          71.0309   77.1492   12.2895 C.ar    1  UNL1        0.0150
     22 C          72.6450   79.9627   10.0029 C.3     1  UNL1        0.0679
     23 C          72.2901   79.9737    8.5456 C.2     1  UNL1        0.0547
     24 O          72.9369   78.9970    7.6087 O.co2   1  UNL1       -0.5488
     25 O          71.2883   80.9614    8.0251 O.co2   1  UNL1       -0.5488
     26 O          71.5180   73.5199   17.6527 O.3     1  UNL1       -0.4753
     27 C          72.5307   73.1796   20.0210 C.3     1  UNL1        0.0512
     28 C          72.6974   73.5571   18.5789 C.3     1  UNL1        0.2055
     29 O          71.7660   70.2808   12.6083 O.3     1  UNL1       -0.4753
     30 C          70.5180   70.0332   11.8138 C.3     1  UNL1        0.2055
     31 C          69.2746   70.8195   12.1060 C.3     1  UNL1        0.0512
@<TRIPOS>UNITY_ATOM_ATTR
24 1
charge -1
@<TRIPOS>BOND
     1    27    28    1
     2    28    26    1
     3    26     1    1
     4     1     2   ar
     5     2     3   ar
     6     3     4   ar
     7     4    29    1
     8    29    30    1
     9    30    31    1
    10     4     5   ar
    11     5     6   ar
    12     6     7   ar
    13     7     8   ar
    14     8     9   ar
    15     9    10   ar
    16     3    11    1
    17    11    12    2
    18    11    13   am
    19    13    16    1
    20    16    17   ar
    21    17    18   ar
    22    18    19   ar
    23    19    22    1
    24    22    23    1
    25    23    24   ar
    26    23    25   ar
    27    19    20   ar
    28    20    21   ar
    29    13    14   am
    30    14    15    2
    31    10     1   ar
    32    21    16   ar
    33    14     2    1
    34    10     5   ar
@<TRIPOS>MOLECULE
*****
 31 34 0 0 0
SMALL
GASTEIGER

@<TRIPOS>ATOM
      1 C          65.0864   90.7272   14.5739 C.ar    1  UNL1        0.1431
      2 C          64.3947   90.7223   13.2429 C.ar    1  UNL1        0.0955
      3 C          64.6894   91.7987   12.2406 C.ar    1  UNL1        0.0955
      4 C          65.6758   92.8799   12.5692 C.ar    1  UNL1        0.1431
      5 C          66.3675   92.8848   13.9002 C.ar    1  UNL1        0.0371
      6 C          67.3539   93.9660   14.2288 C.ar    1  UNL1        0.0031
      7 C          68.0456   93.9708   15.5598 C.ar    1  UNL1        0.0001
      8 C          67.7509   92.8945   16.5621 C.ar    1  UNL1        0.0001
      9 C          66.7646   91.8133   16.2335 C.ar    1  UNL1        0.0031
     10 C          66.0729   91.8084   14.9026 C.ar    1  UNL1        0.0371
     11 C          63.8590   91.5349   11.0196 C.2     1  UNL1        0.2619
     12 O          63.8398   92.3648    9.7702 O.2     1  UNL1       -0.2690
     13 N          63.0511   90.2956   11.2673 N.am    1  UNL1       -0.2009
     14 C          63.3822   89.7934   12.6414 C.2     1  UNL1        0.2619
     15 O          62.8026   88.5759   13.2986 O.2     1  UNL1       -0.2690
     16 C          62.0822   89.6685   10.3091 C.ar    1  UNL1        0.0612
     17 C          62.2740   88.2466    9.8717 C.ar    1  UNL1        0.0150
     18 C          61.3051   87.6195    8.9135 C.ar    1  UNL1       -0.0026
     19 C          60.1445   88.4144    8.3927 C.ar    1  UNL1       -0.0165
     20 C          59.9528   89.8363    8.8301 C.ar    1  UNL1       -0.0026
     21 C          60.9217   90.4633    9.7883 C.ar    1  UNL1        0.0150
     22 C          59.1757   87.7873    7.4345 C.3     1  UNL1        0.0679
     23 C          58.9809   86.3001    7.4306 C.2     1  UNL1        0.0547
     24 O          57.6436   85.7178    7.7808 O.co2   1  UNL1       -0.5488
     25 O          60.1235   85.3950    7.0765 O.co2   1  UNL1       -0.5488
     26 O          64.7918   89.6508   15.5762 O.3     1  UNL1       -0.4753
     27 C          63.0277   88.4132   17.0275 C.3     1  UNL1        0.0512
     28 C          63.4861   89.6508   16.3147 C.3     1  UNL1        0.2055
     29 O          65.9704   93.9562   11.5669 O.3     1  UNL1       -0.4753
     30 C          66.8622   93.6670   10.3960 C.3     1  UNL1        0.2055
     31 C          67.6491   92.3908   10.3499 C.3     1  UNL1        0.0512
@<TRIPOS>UNITY_ATOM_ATTR
24 1
charge -1
@<TRIPOS>BOND
     1    27    28    1
     2    28    26    1
     3    26     1    1
     4     1     2   ar
     5     2     3   ar
     6     3     4   ar
     7     4    29    1
     8    29    30    1
     9    30    31    1
    10     4     5   ar
    11     5     6   ar
    12     6     7   ar
    13     7     8   ar
    14     8     9   ar
    15     9    10   ar
    16     3    11    1
    17    11    12    2
    18    11    13   am
    19    13    16    1
    20    16    17   ar
    21    17    18   ar
    22    18    19   ar
    23    19    22    1
    24    22    23    1
    25    23    24   ar
    26    23    25   ar
    27    19    20   ar
    28    20    21   ar
    29    13    14   am
    30    14    15    2
    31    10     1   ar
    32    21    16   ar
    33    14     2    1
    34    10     5   ar
@<TRIPOS>MOLECULE
*****
 31 34 0 0 0
SMALL
GASTEIGER

@<TRIPOS>ATOM
      1 C          65.6813   92.8720   12.5769 C.ar    1  UNL1        0.1431
      2 C          64.6932   91.7927   12.2475 C.ar    1  UNL1        0.0955
      3 C          64.3959   90.7168   13.2495 C.ar    1  UNL1        0.0955
      4 C          65.0867   90.7203   14.5809 C.ar    1  UNL1        0.1431
      5 C          66.0748   91.7997   14.9104 C.ar    1  UNL1        0.0371
      6 C          66.7656   91.8032   16.2418 C.ar    1  UNL1        0.0031
      7 C          67.7537   92.8825   16.5712 C.ar    1  UNL1        0.0001
      8 C          68.0511   93.9584   15.5692 C.ar    1  UNL1        0.0001
      9 C          67.3603   93.9549   14.2378 C.ar    1  UNL1        0.0031
     10 C          66.3722   92.8756   13.9084 C.ar    1  UNL1        0.0371
     11 C          63.3821   89.7897   12.6471 C.2     1  UNL1        0.2619
     12 O          62.7998   88.5733   13.3038 O.2     1  UNL1       -0.2690
     13 N          63.0529   90.2926   11.2729 N.am    1  UNL1       -0.2009
     14 C          63.8632   91.5305   11.0259 C.2     1  UNL1        0.2619
     15 O          63.8464   92.3605    9.7765 O.2     1  UNL1       -0.2690
     16 C          62.0835   89.6674   10.3139 C.ar    1  UNL1        0.0612
     17 C          60.9098   90.4558    9.8133 C.ar    1  UNL1        0.0150
     18 C          59.9404   89.8306    8.8544 C.ar    1  UNL1       -0.0026
     19 C          60.1448   88.4170    8.3961 C.ar    1  UNL1       -0.0165
     20 C          61.3186   87.6287    8.8968 C.ar    1  UNL1       -0.0026
     21 C          62.2879   88.2539    9.8557 C.ar    1  UNL1        0.0150
     22 C          59.1755   87.7918    7.4372 C.3     1  UNL1        0.0679
     23 C          58.9860   86.3039    7.4257 C.2     1  UNL1        0.0547
     24 O          57.6551   85.7145    7.7884 O.co2   1  UNL1       -0.5488
     25 O          60.1273   85.4053    7.0516 O.co2   1  UNL1       -0.5488
     26 O          65.9786   93.9479   11.5748 O.3     1  UNL1       -0.4753
     27 C          67.5964   92.3412   10.3292 C.3     1  UNL1        0.0512
     28 C          66.9234   93.6770   10.4416 C.3     1  UNL1        0.2055
     29 O          64.7893   89.6444   15.5830 O.3     1  UNL1       -0.4753
     30 C          63.4613   89.6146   16.2797 C.3     1  UNL1        0.2055
     31 C          63.0527   88.4029   17.0637 C.3     1  UNL1        0.0512
@<TRIPOS>UNITY_ATOM_ATTR
24 1
charge -1
@<TRIPOS>BOND
     1    27    28    1
     2    28    26    1
     3    26     1    1
     4     1     2   ar
     5     2     3   ar
     6     3     4   ar
     7     4    29    1
     8    29    30    1
     9    30    31    1
    10     4     5   ar
    11     5     6   ar
    12     6     7   ar
    13     7     8   ar
    14     8     9   ar
    15     9    10   ar
    16     3    11    1
    17    11    12    2
    18    11    13   am
    19    13    16    1
    20    16    17   ar
    21    17    18   ar
    22    18    19   ar
    23    19    22    1
    24    22    23    1
    25    23    24   ar
    26    23    25   ar
    27    19    20   ar
    28    20    21   ar
    29    13    14   am
    30    14    15    2
    31    10     1   ar
    32    21    16   ar
    33    14     2    1
    34    10     5   ar
@<TRIPOS>MOLECULE
*****
 31 34 0 0 0
SMALL
GASTEIGER

@<TRIPOS>ATOM
      1 C          64.0243   86.9279   14.3903 C.ar    1  UNL1        0.1431
      2 C          63.6162   85.8714   13.4069 C.ar    1  UNL1        0.0955
      3 C          63.0902   86.2649   12.0584 C.ar    1  UNL1        0.0955
      4 C          62.9723   87.7149   11.6933 C.ar    1  UNL1        0.1431
      5 C          63.3803   88.7716   12.6767 C.ar    1  UNL1        0.0371
      6 C          63.2624   90.2216   12.3116 C.ar    1  UNL1        0.0031
      7 C          63.6705   91.2782   13.2950 C.ar    1  UNL1        0.0001
      8 C          64.1965   90.8847   14.6435 C.ar    1  UNL1        0.0001
      9 C          64.3144   89.4346   15.0086 C.ar    1  UNL1        0.0031
     10 C          63.9064   88.3781   14.0252 C.ar    1  UNL1        0.0371
     11 C          62.7684   85.0100   11.3022 C.2     1  UNL1        0.2619
     12 O          62.2163   84.9371    9.9094 O.2     1  UNL1       -0.2690
     13 N          63.0954   83.8410   12.1833 N.am    1  UNL1       -0.2009
     14 C          63.6194   84.3733   13.4841 C.2     1  UNL1        0.2619
     15 O          64.0679   83.5519   14.6563 O.2     1  UNL1       -0.2690
     16 C          62.9279   82.3938   11.8264 C.ar    1  UNL1        0.0612
     17 C          63.2431   81.9225   10.4377 C.ar    1  UNL1        0.0150
     18 C          63.0756   80.4752   10.0807 C.ar    1  UNL1       -0.0026
     19 C          62.5929   79.4993   11.1124 C.ar    1  UNL1       -0.0165
     20 C          62.2777   79.9706   12.5011 C.ar    1  UNL1       -0.0026
     21 C          62.4452   81.4178   12.8581 C.ar    1  UNL1        0.0150
     22 C          62.4254   78.0520   10.7555 C.3     1  UNL1        0.0679
     23 C          63.5085   77.3341   10.0063 C.2     1  UNL1        0.0547
     24 O          63.8590   75.9206   10.3658 O.co2   1  UNL1       -0.5488
     25 O          64.2413   78.0296    8.8976 O.co2   1  UNL1       -0.5488
     26 O          64.5503   86.5344   15.7388 O.3     1  UNL1       -0.4753
     27 C          62.8009   87.1020   17.5739 C.3     1  UNL1        0.0512
     28 C          63.6026   86.0883   16.8126 C.3     1  UNL1        0.2055
     29 O          62.4463   88.1084   10.3448 O.3     1  UNL1       -0.4753
     30 C          60.9676   88.1314   10.0940 C.3     1  UNL1        0.2055
     31 C          60.0163   88.3363   11.2356 C.3     1  UNL1        0.0512
@<TRIPOS>UNITY_ATOM_ATTR
24 1
charge -1
@<TRIPOS>BOND
     1    27    28    1
     2    28    26    1
     3    26     1    1
     4     1     2   ar
     5     2     3   ar
     6     3     4   ar
     7     4    29    1
     8    29    30    1
     9    30    31    1
    10     4     5   ar
    11     5     6   ar
    12     6     7   ar
    13     7     8   ar
    14     8     9   ar
    15     9    10   ar
    16     3    11    1
    17    11    12    2
    18    11    13   am
    19    13    16    1
    20    16    17   ar
    21    17    18   ar
    22    18    19   ar
    23    19    22    1
    24    22    23    1
    25    23    24   ar
    26    23    25   ar
    27    19    20   ar
    28    20    21   ar
    29    13    14   am
    30    14    15    2
    31    10     1   ar
    32    21    16   ar
    33    14     2    1
    34    10     5   ar
@<TRIPOS>MOLECULE
*****
 31 34 0 0 0
SMALL
GASTEIGER

@<TRIPOS>ATOM
      1 C          62.9768   87.7296   11.6683 C.ar    1  UNL1        0.1431
      2 C          63.0909   86.2804   12.0378 C.ar    1  UNL1        0.0955
      3 C          63.6103   85.8896   13.3897 C.ar    1  UNL1        0.0955
      4 C          64.0155   86.9481   14.3721 C.ar    1  UNL1        0.1431
      5 C          63.9014   88.3975   14.0027 C.ar    1  UNL1        0.0371
      6 C          64.3067   89.4560   14.9851 C.ar    1  UNL1        0.0031
      7 C          64.1925   90.9053   14.6157 C.ar    1  UNL1        0.0001
      8 C          63.6732   91.2961   13.2638 C.ar    1  UNL1        0.0001
      9 C          63.2680   90.2375   12.2814 C.ar    1  UNL1        0.0031
     10 C          63.3821   88.7882   12.6508 C.ar    1  UNL1        0.0371
     11 C          63.6109   84.3918   13.4708 C.2     1  UNL1        0.2619
     12 O          64.0529   83.5728   14.6471 O.2     1  UNL1       -0.2690
     13 N          63.0920   83.8568   12.1691 N.am    1  UNL1       -0.2009
     14 C          62.7706   85.0240   11.2834 C.2     1  UNL1        0.2619
     15 O          62.2247   84.9482    9.8883 O.2     1  UNL1       -0.2690
     16 C          62.9239   82.4089   11.8151 C.ar    1  UNL1        0.0612
     17 C          63.2197   81.9381   10.4220 C.ar    1  UNL1        0.0150
     18 C          63.0516   80.4902   10.0681 C.ar    1  UNL1       -0.0026
     19 C          62.5877   79.5131   11.1073 C.ar    1  UNL1       -0.0165
     20 C          62.2919   79.9838   12.5004 C.ar    1  UNL1       -0.0026
     21 C          62.4600   81.4318   12.8543 C.ar    1  UNL1        0.0150
     22 C          62.4196   78.0651   10.7533 C.3     1  UNL1        0.0679
     23 C          63.5086   77.3414   10.0182 C.2     1  UNL1        0.0547
     24 O          63.8400   75.9227   10.3754 O.co2   1  UNL1       -0.5488
     25 O          64.2661   78.0364    8.9258 O.co2   1  UNL1       -0.5488
     26 O          62.4575   88.1204   10.3164 O.3     1  UNL1       -0.4753
     27 C          60.0400   88.2571   11.2585 C.3     1  UNL1        0.0512
     28 C          60.9806   88.2530   10.0900 C.3     1  UNL1        0.2055
     29 O          64.5349   86.5574   15.7240 O.3     1  UNL1       -0.4753
     30 C          63.5831   86.1022   16.7902 C.3     1  UNL1        0.2055
     31 C          62.7973   87.1109   17.5745 C.3     1  UNL1        0.0512
@<TRIPOS>UNITY_ATOM_ATTR
24 1
charge -1
@<TRIPOS>BOND
     1    27    28    1
     2    28    26    1
     3    26     1    1
     4     1     2   ar
     5     2     3   ar
     6     3     4   ar
     7     4    29    1
     8    29    30    1
     9    30    31    1
    10     4     5   ar
    11     5     6   ar
    12     6     7   ar
    13     7     8   ar
    14     8     9   ar
    15     9    10   ar
    16     3    11    1
    17    11    12    2
    18    11    13   am
    19    13    16    1
    20    16    17   ar
    21    17    18   ar
    22    18    19   ar
    23    19    22    1
    24    22    23    1
    25    23    24   ar
    26    23    25   ar
    27    19    20   ar
    28    20    21   ar
    29    13    14   am
    30    14    15    2
    31    10     1   ar
    32    21    16   ar
    33    14     2    1
    34    10     5   ar
@<TRIPOS>MOLECULE
*****
 31 34 0 0 0
SMALL
GASTEIGER

@<TRIPOS>ATOM
      1 C          62.4810   85.2716   11.8053 C.ar    1  UNL1        0.1431
      2 C          63.0498   86.5882   12.2443 C.ar    1  UNL1        0.0955
      3 C          63.5639   86.7540   13.6436 C.ar    1  UNL1        0.0955
      4 C          63.5092   85.6032   14.6041 C.ar    1  UNL1        0.1431
      5 C          62.9402   84.2864   14.1651 C.ar    1  UNL1        0.0371
      6 C          62.8854   83.1355   15.1256 C.ar    1  UNL1        0.0031
      7 C          62.3166   81.8189   14.6866 C.ar    1  UNL1        0.0001
      8 C          61.8025   81.6531   13.2873 C.ar    1  UNL1        0.0001
      9 C          61.8573   82.8039   12.3268 C.ar    1  UNL1        0.0031
     10 C          62.4261   84.1206   12.7658 C.ar    1  UNL1        0.0371
     11 C          64.0653   88.1602   13.7897 C.2     1  UNL1        0.2619
     12 O          64.6655   88.7581   15.0275 O.2     1  UNL1       -0.2690
     13 N          63.8610   88.8635   12.4806 N.am    1  UNL1       -0.2009
     14 C          63.2335   87.8919   11.5255 C.2     1  UNL1        0.2619
     15 O          62.8558   88.1745   10.1016 O.2     1  UNL1       -0.2690
     16 C          64.2211   90.2882   12.1795 C.ar    1  UNL1        0.0612
     17 C          65.0022   91.0912   13.1770 C.ar    1  UNL1        0.0150
     18 C          65.3623   92.5159   12.8759 C.ar    1  UNL1       -0.0026
     19 C          64.9413   93.1375   11.5774 C.ar    1  UNL1       -0.0165
     20 C          64.1602   92.3345   10.5799 C.ar    1  UNL1       -0.0026
     21 C          63.8001   90.9098   10.8810 C.ar    1  UNL1        0.0150
     22 C          65.3014   94.5622   11.2763 C.3     1  UNL1        0.0679
     23 C          66.6052   94.8807   10.6065 C.2     1  UNL1        0.0547
     24 O          67.6305   93.8035   10.4103 O.co2   1  UNL1       -0.5488
     25 O          66.8837   96.2765   10.1330 O.co2   1  UNL1       -0.5488
     26 O          61.9669   85.1058   10.4060 O.3     1  UNL1       -0.4753
     27 C          62.5998   85.2774    7.8920 C.3     1  UNL1        0.0512
     28 C          62.9222   84.8228    9.2846 C.3     1  UNL1        0.2055
     29 O          64.0232   85.7690   16.0034 O.3     1  UNL1       -0.4753
     30 C          63.0729   86.0913   17.1183 C.3     1  UNL1        0.2055
     31 C          62.8460   87.5181   17.5215 C.3     1  UNL1        0.0512
@<TRIPOS>UNITY_ATOM_ATTR
24 1
charge -1
@<TRIPOS>BOND
     1    27    28    1
     2    28    26    1
     3    26     1    1
     4     1     2   ar
     5     2     3   ar
     6     3     4   ar
     7     4    29    1
     8    29    30    1
     9    30    31    1
    10     4     5   ar
    11     5     6   ar
    12     6     7   ar
    13     7     8   ar
    14     8     9   ar
    15     9    10   ar
    16     3    11    1
    17    11    12    2
    18    11    13   am
    19    13    16    1
    20    16    17   ar
    21    17    18   ar
    22    18    19   ar
    23    19    22    1
    24    22    23    1
    25    23    24   ar
    26    23    25   ar
    27    19    20   ar
    28    20    21   ar
    29    13    14   am
    30    14    15    2
    31    10     1   ar
    32    21    16   ar
    33    14     2    1
    34    10     5   ar
@<TRIPOS>MOLECULE
*****
 31 34 0 0 0
SMALL
GASTEIGER

@<TRIPOS>ATOM
      1 C          63.4810   85.5998   14.6194 C.ar    1  UNL1        0.1431
      2 C          63.5448   86.7484   13.6568 C.ar    1  UNL1        0.0955
      3 C          63.0400   86.5805   12.2543 C.ar    1  UNL1        0.0955
      4 C          62.4714   85.2640   11.8144 C.ar    1  UNL1        0.1431
      5 C          62.4075   84.1154   12.7771 C.ar    1  UNL1        0.0371
      6 C          61.8388   82.7989   12.3372 C.ar    1  UNL1        0.0031
      7 C          61.7750   81.6504   13.2998 C.ar    1  UNL1        0.0001
      8 C          62.2798   81.8182   14.7023 C.ar    1  UNL1        0.0001
      9 C          62.8484   83.1347   15.1422 C.ar    1  UNL1        0.0031
     10 C          62.9123   84.2833   14.1796 C.ar    1  UNL1        0.0371
     11 C          63.2314   87.8822   11.5339 C.2     1  UNL1        0.2619
     12 O          62.8641   88.1623   10.1068 O.2     1  UNL1       -0.2690
     13 N          63.8544   88.8546   12.4911 N.am    1  UNL1       -0.2009
     14 C          64.0482   88.1538   13.8032 C.2     1  UNL1        0.2619
     15 O          64.6411   88.7532   15.0438 O.2     1  UNL1       -0.2690
     16 C          64.2196   90.2778   12.1893 C.ar    1  UNL1        0.0612
     17 C          63.8004   90.9004   10.8907 C.ar    1  UNL1        0.0150
     18 C          64.1656   92.3237   10.5889 C.ar    1  UNL1       -0.0026
     19 C          64.9500   93.1242   11.5857 C.ar    1  UNL1       -0.0165
     20 C          65.3693   92.5016   12.8844 C.ar    1  UNL1       -0.0026
     21 C          65.0041   91.0783   13.1862 C.ar    1  UNL1        0.0150
     22 C          65.3152   94.5474   11.2839 C.3     1  UNL1        0.0679
     23 C          66.6065   94.8588   10.5871 C.2     1  UNL1        0.0547
     24 O          67.6369   93.7844   10.4019 O.co2   1  UNL1       -0.5488
     25 O          66.8675   96.2445   10.0755 O.co2   1  UNL1       -0.5488
     26 O          63.9858   85.7677   16.0219 O.3     1  UNL1       -0.4753
     27 C          62.8390   87.5324   17.5454 C.3     1  UNL1        0.0512
     28 C          63.0299   86.1043   17.1278 C.3     1  UNL1        0.2055
     29 O          61.9666   85.0962   10.4120 O.3     1  UNL1       -0.4753
     30 C          62.9308   84.8268    9.2950 C.3     1  UNL1        0.2055
     31 C          62.6070   85.2743    7.9004 C.3     1  UNL1        0.0512
@<TRIPOS>UNITY_ATOM_ATTR
24 1
charge -1
@<TRIPOS>BOND
     1    27    28    1
     2    28    26    1
     3    26     1    1
     4     1     2   ar
     5     2     3   ar
     6     3     4   ar
     7     4    29    1
     8    29    30    1
     9    30    31    1
    10     4     5   ar
    11     5     6   ar
    12     6     7   ar
    13     7     8   ar
    14     8     9   ar
    15     9    10   ar
    16     3    11    1
    17    11    12    2
    18    11    13   am
    19    13    16    1
    20    16    17   ar
    21    17    18   ar
    22    18    19   ar
    23    19    22    1
    24    22    23    1
    25    23    24   ar
    26    23    25   ar
    27    19    20   ar
    28    20    21   ar
    29    13    14   am
    30    14    15    2
    31    10     1   ar
    32    21    16   ar
    33    14     2    1
    34    10     5   ar
@<TRIPOS>MOLECULE
*****
 31 34 0 0 0
SMALL
GASTEIGER

@<TRIPOS>ATOM
      1 C          63.4827   87.7862   12.9590 C.ar    1  UNL1        0.1431
      2 C          62.6218   87.6141   11.7428 C.ar    1  UNL1        0.0955
      3 C          62.2123   86.2401   11.3020 C.ar    1  UNL1        0.0955
      4 C          62.6637   85.0381   12.0774 C.ar    1  UNL1        0.1431
      5 C          63.5247   85.2100   13.2937 C.ar    1  UNL1        0.0371
      6 C          63.9760   84.0080   14.0692 C.ar    1  UNL1        0.0031
      7 C          64.8369   84.1800   15.2854 C.ar    1  UNL1        0.0001
      8 C          65.2464   85.5541   15.7262 C.ar    1  UNL1        0.0001
      9 C          64.7950   86.7561   14.9508 C.ar    1  UNL1        0.0031
     10 C          63.9341   86.5841   13.7345 C.ar    1  UNL1        0.0371
     11 C          61.3652   86.3811   10.0722 C.2     1  UNL1        0.2619
     12 O          60.7417   85.2580    9.2976 O.2     1  UNL1       -0.2690
     13 N          61.2511   87.8422    9.7529 N.am    1  UNL1       -0.2009
     14 C          62.0277   88.6043   10.7854 C.2     1  UNL1        0.2619
     15 O          62.1831   90.0949   10.8493 O.2     1  UNL1       -0.2690
     16 C          60.4935   88.4369    8.6029 C.ar    1  UNL1        0.0612
     17 C          60.5076   89.9206    8.3825 C.ar    1  UNL1        0.0150
     18 C          59.7500   90.5152    7.2326 C.ar    1  UNL1       -0.0026
     19 C          58.9781   89.6263    6.3031 C.ar    1  UNL1       -0.0165
     20 C          58.9640   88.1427    6.5235 C.ar    1  UNL1       -0.0026
     21 C          59.7216   87.5480    7.6734 C.ar    1  UNL1        0.0150
     22 C          58.2205   90.2210    5.1532 C.3     1  UNL1        0.0679
     23 C          58.0757   91.7097    5.0402 C.2     1  UNL1        0.0547
     24 O          59.2862   92.5658    4.8125 O.co2   1  UNL1       -0.5488
     25 O          56.7204   92.3423    5.1547 O.co2   1  UNL1       -0.5488
     26 O          63.8922   89.1602   13.3999 O.3     1  UNL1       -0.4753
     27 C          63.5115   90.1177   15.7849 C.3     1  UNL1        0.0512
     28 C          63.0415   89.9199   14.3742 C.3     1  UNL1        0.2055
     29 O          62.2543   83.6640   11.6366 O.3     1  UNL1       -0.4753
     30 C          63.2095   82.8111   10.8556 C.3     1  UNL1        0.2055
     31 C          64.1742   83.4480    9.8997 C.3     1  UNL1        0.0512
@<TRIPOS>UNITY_ATOM_ATTR
24 1
charge -1
@<TRIPOS>BOND
     1    27    28    1
     2    28    26    1
     3    26     1    1
     4     1     2   ar
     5     2     3   ar
     6     3     4   ar
     7     4    29    1
     8    29    30    1
     9    30    31    1
    10     4     5   ar
    11     5     6   ar
    12     6     7   ar
    13     7     8   ar
    14     8     9   ar
    15     9    10   ar
    16     3    11    1
    17    11    12    2
    18    11    13   am
    19    13    16    1
    20    16    17   ar
    21    17    18   ar
    22    18    19   ar
    23    19    22    1
    24    22    23    1
    25    23    24   ar
    26    23    25   ar
    27    19    20   ar
    28    20    21   ar
    29    13    14   am
    30    14    15    2
    31    10     1   ar
    32    21    16   ar
    33    14     2    1
    34    10     5   ar
@<TRIPOS>MOLECULE
*****
 31 34 0 0 0
SMALL
GASTEIGER

@<TRIPOS>ATOM
      1 C          63.1717   85.8110   13.2293 C.ar    1  UNL1        0.1431
      2 C          62.5567   86.0145   11.8764 C.ar    1  UNL1        0.0955
      3 C          62.5572   84.8965   10.8764 C.ar    1  UNL1        0.0955
      4 C          63.1726   83.5749   11.2292 C.ar    1  UNL1        0.1431
      5 C          63.7876   83.3713   12.5822 C.ar    1  UNL1        0.0371
      6 C          64.4030   82.0497   12.9350 C.ar    1  UNL1        0.0031
      7 C          65.0180   81.8461   14.2879 C.ar    1  UNL1        0.0001
      8 C          65.0176   82.9641   15.2879 C.ar    1  UNL1        0.0001
      9 C          64.4022   84.2857   14.9351 C.ar    1  UNL1        0.0031
     10 C          63.7872   84.4893   13.5822 C.ar    1  UNL1        0.0371
     11 C          61.8817   85.3886    9.6308 C.2     1  UNL1        0.2619
     12 O          61.6626   84.5974    8.3754 O.2     1  UNL1       -0.2690
     13 N          61.4637   86.8107    9.8609 N.am    1  UNL1       -0.2009
     14 C          61.8810   87.1975   11.2488 C.2     1  UNL1        0.2619
     15 O          61.6610   88.5329   11.8956 O.2     1  UNL1       -0.2690
     16 C          60.7533   87.6913    8.8761 C.ar    1  UNL1        0.0612
     17 C          59.9503   87.0800    7.7664 C.ar    1  UNL1        0.0150
     18 C          59.2399   87.9606    6.7816 C.ar    1  UNL1       -0.0026
     19 C          59.3325   89.4525    6.9064 C.ar    1  UNL1       -0.0165
     20 C          60.1356   90.0638    8.0161 C.ar    1  UNL1       -0.0026
     21 C          60.8460   89.1832    9.0009 C.ar    1  UNL1        0.0150
     22 C          58.6221   90.3331    5.9216 C.3     1  UNL1        0.0679
     23 C          59.3989   91.3195    5.1010 C.2     1  UNL1        0.0547
     24 O          58.7115   92.5215    4.5242 O.co2   1  UNL1       -0.5488
     25 O          60.8632   91.1040    4.8570 O.co2   1  UNL1       -0.5488
     26 O          63.1713   86.9290   14.2293 O.3     1  UNL1       -0.4753
     27 C          64.1346   89.3041   14.6544 C.3     1  UNL1        0.0512
     28 C          64.3457   87.8582   14.3159 C.3     1  UNL1        0.2055
     29 O          63.1730   82.4569   10.2292 O.3     1  UNL1       -0.4753
     30 C          63.0214   81.0378   10.6908 C.3     1  UNL1        0.2055
     31 C          62.8403   79.9379    9.6870 C.3     1  UNL1        0.0512
@<TRIPOS>UNITY_ATOM_ATTR
24 1
charge -1
@<TRIPOS>BOND
     1    27    28    1
     2    28    26    1
     3    26     1    1
     4     1     2   ar
     5     2     3   ar
     6     3     4   ar
     7     4    29    1
     8    29    30    1
     9    30    31    1
    10     4     5   ar
    11     5     6   ar
    12     6     7   ar
    13     7     8   ar
    14     8     9   ar
    15     9    10   ar
    16     3    11    1
    17    11    12    2
    18    11    13   am
    19    13    16    1
    20    16    17   ar
    21    17    18   ar
    22    18    19   ar
    23    19    22    1
    24    22    23    1
    25    23    24   ar
    26    23    25   ar
    27    19    20   ar
    28    20    21   ar
    29    13    14   am
    30    14    15    2
    31    10     1   ar
    32    21    16   ar
    33    14     2    1
    34    10     5   ar
