@<TRIPOS>MOLECULE
*****
 43 48 0 0 0
SMALL
GASTEIGER

@<TRIPOS>ATOM
      1 N          60.3013   88.8827   10.3183 N.am    1  UNL1       -0.2222
      2 C          59.9586   89.9749    9.3489 C.2     1  UNL1        0.3220
      3 O          59.4315   91.3341    9.7023 O.2     1  UNL1       -0.2512
      4 N          60.2355   89.4693    7.9640 N.am    1  UNL1       -0.1892
      5 C          60.7493   88.0646    8.0776 C.2     1  UNL1        0.2529
      6 O          61.1518   87.1781    6.9365 O.2     1  UNL1       -0.2724
      7 C          60.7900   87.7020    9.5326 C.3     1  UNL1        0.1391
      8 C          60.7754   87.4836   11.0165 C.3     1  UNL1        0.0449
      9 C          61.2257   86.1709   11.5858 C.3     1  UNL1        0.0746
     10 N          61.6907   85.0767   10.6711 N.3     1  UNL1       -0.2676
     11 C          61.7053   85.2952    9.1872 C.3     1  UNL1        0.0746
     12 C          61.2550   86.6078    8.6180 C.3     1  UNL1        0.0449
     13 C          61.2393   89.4197   14.1369 C.ar    1  UNL1        0.2293
     14 C          61.3634   89.3445   12.6439 C.ar    1  UNL1        0.0924
     15 C          60.1772   88.9579   11.8112 C.ar    1  UNL1        0.1453
     16 N          58.8668   88.6466   12.4715 N.ar    1  UNL1       -0.2084
     17 C          58.7426   88.7218   13.9644 C.ar    1  UNL1        0.2027
     18 N          59.9289   89.1084   14.7971 N.ar    1  UNL1       -0.1892
     19 C          63.5821   90.5241   14.3396 C.3     1  UNL1        0.2542
     20 O          62.4255   89.8063   14.9696 O.3     1  UNL1       -0.4560
     21 C          60.0339   90.2340    6.6895 C.ar    1  UNL1        0.0813
     22 C          61.2184   90.6459    5.8667 C.ar    1  UNL1        0.0185
     23 C          61.0168   91.4106    4.5921 C.ar    1  UNL1        0.0204
     24 C          59.6307   91.7635    4.1404 C.ar    1  UNL1        0.0814
     25 N          58.4460   91.3517    4.9633 N.ar    1  UNL1       -0.2425
     26 C          58.6477   90.5869    6.2379 C.ar    1  UNL1        0.1141
     27 C          59.4291   92.5283    2.8658 C.ar    1  UNL1        0.0177
     28 C          60.2158   93.7795    2.6095 C.ar    1  UNL1        0.0015
     29 C          60.0142   94.5442    1.3349 C.ar    1  UNL1        0.0012
     30 C          59.0259   94.0578    0.3168 C.ar    1  UNL1        0.0140
     31 C          58.2392   92.8066    0.5731 C.ar    1  UNL1        0.0012
     32 C          58.4408   92.0419    1.8476 C.ar    1  UNL1        0.0015
     33 C          58.8243   94.8225   -0.9578 C.2     1  UNL1        0.0729
     34 O          59.9771   95.0396   -1.8926 O.co2   1  UNL1       -0.5446
     35 O          57.4697   95.3702   -1.2976 O.co2   1  UNL1       -0.5446
     36 C          62.1410   83.7640   11.2405 C.3     1  UNL1        0.1183
     37 C          62.8580   83.7241   12.5574 C.ar    1  UNL1        0.0712
     38 N          63.7210   84.8771   12.9767 N.ar    1  UNL1       -0.2471
     39 C          64.4380   84.8371   14.2937 C.ar    1  UNL1        0.0985
     40 C          64.2919   83.6443   15.1914 C.ar    1  UNL1        0.0203
     41 C          63.4288   82.4914   14.7720 C.ar    1  UNL1       -0.0015
     42 C          62.7118   82.5313   13.4551 C.ar    1  UNL1       -0.0069
     43 C          61.8488   81.3783   13.0358 C.3     1  UNL1        0.0323
@<TRIPOS>UNITY_ATOM_ATTR
34 1
charge -1
@<TRIPOS>BOND
     1    19    20    1
     2    20    13    1
     3    13    14   ar
     4    14    15   ar
     5    15     1    1
     6     1     2   am
     7     2     3    2
     8     2     4   am
     9     4    21    1
    10    21    22   ar
    11    22    23   ar
    12    23    24   ar
    13    24    27    1
    14    27    28   ar
    15    28    29   ar
    16    29    30   ar
    17    30    33    1
    18    33    34   ar
    19    33    35   ar
    20    30    31   ar
    21    31    32   ar
    22    24    25   ar
    23    25    26   ar
    24     4     5   am
    25     5     6    2
    26     5     7    1
    27     7     8    1
    28     8     9    1
    29     9    10    1
    30    10    36    1
    31    36    37    1
    32    37    38   ar
    33    38    39   ar
    34    39    40   ar
    35    40    41   ar
    36    41    42   ar
    37    42    43    1
    38    10    11    1
    39    11    12    1
    40    15    16   ar
    41    16    17   ar
    42    17    18   ar
    43    18    13   ar
    44     7     1    1
    45    42    37   ar
    46    26    21   ar
    47    12     7    1
    48    32    27   ar
@<TRIPOS>MOLECULE
*****
 43 48 0 0 0
SMALL
GASTEIGER

@<TRIPOS>ATOM
      1 N          64.1116   89.7231   14.0246 N.am    1  UNL1       -0.2222
      2 C          63.9738   88.2401   14.2040 C.2     1  UNL1        0.3220
      3 O          64.0516   87.4985   15.5055 O.2     1  UNL1       -0.2512
      4 N          63.7445   87.6291   12.8534 N.am    1  UNL1       -0.1892
      5 C          63.7405   88.7344   11.8393 C.2     1  UNL1        0.2529
      6 O          63.5442   88.5738   10.3609 O.2     1  UNL1       -0.2724
      7 C          63.9674   90.0285   12.5631 C.3     1  UNL1        0.1391
      8 C          64.2012   91.2379   13.4190 C.3     1  UNL1        0.0449
      9 C          64.2716   92.5985   12.7915 C.3     1  UNL1        0.0746
     10 N          64.1082   92.7497   11.3081 N.3     1  UNL1       -0.2676
     11 C          63.8744   91.5403   10.4522 C.3     1  UNL1        0.0746
     12 C          63.8040   90.1797   11.0797 C.3     1  UNL1        0.0449
     13 C          65.9161   92.4223   16.3066 C.ar    1  UNL1        0.2293
     14 C          65.6762   91.4208   15.2160 C.ar    1  UNL1        0.0924
     15 C          64.3514   90.7246   15.1152 C.ar    1  UNL1        0.1453
     16 N          63.2664   91.0300   16.1049 N.ar    1  UNL1       -0.2084
     17 C          63.5062   92.0314   17.1955 C.ar    1  UNL1        0.2027
     18 N          64.8311   92.7277   17.2964 N.ar    1  UNL1       -0.1892
     19 C          68.0706   93.3337   15.1766 C.3     1  UNL1        0.2542
     20 O          67.2408   93.1185   16.4075 O.3     1  UNL1       -0.4560
     21 C          63.5528   86.1693   12.5672 C.ar    1  UNL1        0.0813
     22 C          62.6455   85.7361   11.4540 C.ar    1  UNL1        0.0185
     23 C          62.4538   84.2762   11.1678 C.ar    1  UNL1        0.0204
     24 C          63.1693   83.2495   11.9947 C.ar    1  UNL1        0.0814
     25 N          64.0766   83.6827   13.1080 N.ar    1  UNL1       -0.2425
     26 C          64.2682   85.1426   13.3942 C.ar    1  UNL1        0.1141
     27 C          62.9776   81.7896   11.7085 C.ar    1  UNL1        0.0177
     28 C          63.1997   81.2616   10.3222 C.ar    1  UNL1        0.0015
     29 C          63.0080   79.8017   10.0360 C.ar    1  UNL1        0.0012
     30 C          62.5942   78.8698   11.1362 C.ar    1  UNL1        0.0140
     31 C          62.3721   79.3978   12.5225 C.ar    1  UNL1        0.0012
     32 C          62.5638   80.8576   12.8087 C.ar    1  UNL1        0.0015
     33 C          62.4024   77.4099   10.8500 C.2     1  UNL1        0.0729
     34 O          63.5905   76.5384   10.5688 O.co2   1  UNL1       -0.5446
     35 O          61.0226   76.8215   10.8450 O.co2   1  UNL1       -0.5446
     36 C          64.1785   94.1104   10.6806 C.3     1  UNL1        0.1183
     37 C          65.4377   94.5579    9.9995 C.ar    1  UNL1        0.0712
     38 N          66.6156   93.6328    9.9173 N.ar    1  UNL1       -0.2471
     39 C          67.8748   94.0804    9.2361 C.ar    1  UNL1        0.0985
     40 C          67.9562   95.4531    8.6371 C.ar    1  UNL1        0.0203
     41 C          66.7784   96.3783    8.7192 C.ar    1  UNL1       -0.0015
     42 C          65.5192   95.9308    9.4004 C.ar    1  UNL1       -0.0069
     43 C          64.3413   96.8559    9.4825 C.3     1  UNL1        0.0323
@<TRIPOS>UNITY_ATOM_ATTR
34 1
charge -1
@<TRIPOS>BOND
     1    19    20    1
     2    20    13    1
     3    13    14   ar
     4    14    15   ar
     5    15     1    1
     6     1     2   am
     7     2     3    2
     8     2     4   am
     9     4    21    1
    10    21    22   ar
    11    22    23   ar
    12    23    24   ar
    13    24    27    1
    14    27    28   ar
    15    28    29   ar
    16    29    30   ar
    17    30    33    1
    18    33    34   ar
    19    33    35   ar
    20    30    31   ar
    21    31    32   ar
    22    24    25   ar
    23    25    26   ar
    24     4     5   am
    25     5     6    2
    26     5     7    1
    27     7     8    1
    28     8     9    1
    29     9    10    1
    30    10    36    1
    31    36    37    1
    32    37    38   ar
    33    38    39   ar
    34    39    40   ar
    35    40    41   ar
    36    41    42   ar
    37    42    43    1
    38    10    11    1
    39    11    12    1
    40    15    16   ar
    41    16    17   ar
    42    17    18   ar
    43    18    13   ar
    44     7     1    1
    45    42    37   ar
    46    26    21   ar
    47    12     7    1
    48    32    27   ar
@<TRIPOS>MOLECULE
*****
 43 48 0 0 0
SMALL
GASTEIGER

@<TRIPOS>ATOM
      1 N          60.1419   88.8946   10.0516 N.am    1  UNL1       -0.2222
      2 C          59.8078   89.9945    9.0879 C.2     1  UNL1        0.3220
      3 O          59.2131   91.3256    9.4409 O.2     1  UNL1       -0.2512
      4 N          60.1728   89.5296    7.7092 N.am    1  UNL1       -0.1892
      5 C          60.7324   88.1424    7.8208 C.2     1  UNL1        0.2529
      6 O          61.2247   87.2962    6.6844 O.2     1  UNL1       -0.2724
      7 C          60.7134   87.7499    9.2685 C.3     1  UNL1        0.1391
      8 C          60.6323   87.4988   10.7451 C.3     1  UNL1        0.0449
      9 C          61.1022   86.1913   11.3103 C.3     1  UNL1        0.0746
     10 N          61.6531   85.1349   10.3990 N.3     1  UNL1       -0.2676
     11 C          61.7343   85.3860    8.9225 C.3     1  UNL1        0.0746
     12 C          61.2644   86.6935    8.3572 C.3     1  UNL1        0.0449
     13 C          58.4176   88.5702   13.6113 C.ar    1  UNL1        0.2293
     14 C          58.6195   88.5321   12.1254 C.ar    1  UNL1        0.0924
     15 C          59.9401   88.9327   11.5374 C.ar    1  UNL1        0.1453
     16 N          61.0587   89.3713   12.4353 N.ar    1  UNL1       -0.2084
     17 C          60.8569   89.4095   13.9211 C.ar    1  UNL1        0.2027
     18 N          59.5363   89.0089   14.5092 N.ar    1  UNL1       -0.1892
     19 C          55.9576   87.7957   13.2985 C.3     1  UNL1        0.2542
     20 O          57.0971   88.1697   14.1993 O.3     1  UNL1       -0.4560
     21 C          60.0071   90.3141    6.4416 C.ar    1  UNL1        0.0813
     22 C          61.2121   90.7024    5.6370 C.ar    1  UNL1        0.0185
     23 C          61.0464   91.4869    4.3693 C.ar    1  UNL1        0.0204
     24 C          59.6758   91.8832    3.9062 C.ar    1  UNL1        0.0814
     25 N          58.4708   91.4949    4.7107 N.ar    1  UNL1       -0.2425
     26 C          58.6366   90.7104    5.9784 C.ar    1  UNL1        0.1141
     27 C          59.5102   92.6678    2.6384 C.ar    1  UNL1        0.0177
     28 C          58.7132   92.0981    1.5026 C.ar    1  UNL1        0.0015
     29 C          58.5476   92.8826    0.2349 C.ar    1  UNL1        0.0012
     30 C          59.1790   94.2369    0.1032 C.ar    1  UNL1        0.0140
     31 C          59.9760   94.8066    1.2390 C.ar    1  UNL1        0.0012
     32 C          60.1416   94.0221    2.5067 C.ar    1  UNL1        0.0015
     33 C          59.0133   95.0214   -1.1646 C.2     1  UNL1        0.0729
     34 O          60.1773   95.1999   -2.0937 O.co2   1  UNL1       -0.5446
     35 O          57.6836   95.6275   -1.5031 O.co2   1  UNL1       -0.5446
     36 C          62.1230   83.8273   10.9644 C.3     1  UNL1        0.1183
     37 C          62.8640   83.7969   12.2682 C.ar    1  UNL1        0.0712
     38 N          63.3793   85.0716   12.8680 N.ar    1  UNL1       -0.2471
     39 C          64.1202   85.0411   14.1719 C.ar    1  UNL1        0.0985
     40 C          64.3459   83.7361   14.8760 C.ar    1  UNL1        0.0203
     41 C          63.8306   82.4614   14.2762 C.ar    1  UNL1       -0.0015
     42 C          63.0897   82.4918   12.9724 C.ar    1  UNL1       -0.0069
     43 C          62.5744   81.2171   12.3727 C.3     1  UNL1        0.0323
@<TRIPOS>UNITY_ATOM_ATTR
34 1
charge -1
@<TRIPOS>BOND
     1    19    20    1
     2    20    13    1
     3    13    14   ar
     4    14    15   ar
     5    15     1    1
     6     1     2   am
     7     2     3    2
     8     2     4   am
     9     4    21    1
    10    21    22   ar
    11    22    23   ar
    12    23    24   ar
    13    24    27    1
    14    27    28   ar
    15    28    29   ar
    16    29    30   ar
    17    30    33    1
    18    33    34   ar
    19    33    35   ar
    20    30    31   ar
    21    31    32   ar
    22    24    25   ar
    23    25    26   ar
    24     4     5   am
    25     5     6    2
    26     5     7    1
    27     7     8    1
    28     8     9    1
    29     9    10    1
    30    10    36    1
    31    36    37    1
    32    37    38   ar
    33    38    39   ar
    34    39    40   ar
    35    40    41   ar
    36    41    42   ar
    37    42    43    1
    38    10    11    1
    39    11    12    1
    40    15    16   ar
    41    16    17   ar
    42    17    18   ar
    43    18    13   ar
    44     7     1    1
    45    42    37   ar
    46    26    21   ar
    47    12     7    1
    48    32    27   ar
@<TRIPOS>MOLECULE
*****
 43 48 0 0 0
SMALL
GASTEIGER

@<TRIPOS>ATOM
      1 N          64.8637   90.1469   14.0608 N.am    1  UNL1       -0.2222
      2 C          64.6451   88.7544   14.5742 C.2     1  UNL1        0.3220
      3 O          65.0859   88.2269   15.9073 O.2     1  UNL1       -0.2512
      4 N          63.9084   87.9822   13.5201 N.am    1  UNL1       -0.1892
      5 C          63.6717   88.8973   12.3554 C.2     1  UNL1        0.2529
      6 O          62.9681   88.5378   11.0804 O.2     1  UNL1       -0.2724
      7 C          64.2621   90.2352   12.6896 C.3     1  UNL1        0.1391
      8 C          64.8953   91.5105   13.1613 C.3     1  UNL1        0.0449
      9 C          64.8858   92.7236   12.2791 C.3     1  UNL1        0.0746
     10 N          64.2430   92.6614   10.9253 N.3     1  UNL1       -0.2676
     11 C          63.6098   91.3861   10.4536 C.3     1  UNL1        0.0746
     12 C          63.6193   90.1730   11.3357 C.3     1  UNL1        0.0449
     13 C          67.6821   92.7037   15.1874 C.ar    1  UNL1        0.2293
     14 C          66.9843   91.5944   14.4576 C.ar    1  UNL1        0.0924
     15 C          65.5614   91.2562   14.7906 C.ar    1  UNL1        0.1453
     16 N          64.8363   92.0272   15.8535 N.ar    1  UNL1       -0.2084
     17 C          65.5339   93.1365   16.5833 C.ar    1  UNL1        0.2027
     18 N          66.9569   93.4748   16.2503 N.ar    1  UNL1       -0.1892
     19 C          69.8989   93.9274   15.7687 C.3     1  UNL1        0.2542
     20 O          69.1049   93.0421   14.8545 O.3     1  UNL1       -0.4560
     21 C          63.4831   86.5469   13.6142 C.ar    1  UNL1        0.0813
     22 C          62.8935   85.8594   12.4186 C.ar    1  UNL1        0.0185
     23 C          62.4681   84.4241   12.5127 C.ar    1  UNL1        0.0204
     24 C          62.6324   83.6762   13.8026 C.ar    1  UNL1        0.0814
     25 N          63.2220   84.3637   14.9983 N.ar    1  UNL1       -0.2425
     26 C          63.6473   85.7991   14.9041 C.ar    1  UNL1        0.1141
     27 C          62.2071   82.2408   13.8967 C.ar    1  UNL1        0.0177
     28 C          60.7617   81.8991   14.1071 C.ar    1  UNL1        0.0015
     29 C          60.3364   80.4638   14.2012 C.ar    1  UNL1        0.0012
     30 C          61.3565   79.3702   14.0850 C.ar    1  UNL1        0.0140
     31 C          62.8018   79.7119   13.8747 C.ar    1  UNL1        0.0012
     32 C          63.2271   81.1471   13.7805 C.ar    1  UNL1        0.0015
     33 C          60.9312   77.9348   14.1792 C.2     1  UNL1        0.0729
     34 O          59.4739   77.5807   14.1464 O.co2   1  UNL1       -0.5446
     35 O          61.9631   76.8535   14.3061 O.co2   1  UNL1       -0.5446
     36 C          64.2335   93.8746   10.0431 C.3     1  UNL1        0.1183
     37 C          65.5233   94.5508    9.6838 C.ar    1  UNL1        0.0712
     38 N          66.7705   93.7380    9.5001 N.ar    1  UNL1       -0.2471
     39 C          68.0604   94.4143    9.1408 C.ar    1  UNL1        0.0985
     40 C          68.1030   95.9033    8.9653 C.ar    1  UNL1        0.0203
     41 C          66.8558   96.7162    9.1490 C.ar    1  UNL1       -0.0015
     42 C          65.5660   96.0399    9.5083 C.ar    1  UNL1       -0.0069
     43 C          64.3187   96.8528    9.6920 C.3     1  UNL1        0.0323
@<TRIPOS>UNITY_ATOM_ATTR
34 1
charge -1
@<TRIPOS>BOND
     1    19    20    1
     2    20    13    1
     3    13    14   ar
     4    14    15   ar
     5    15     1    1
     6     1     2   am
     7     2     3    2
     8     2     4   am
     9     4    21    1
    10    21    22   ar
    11    22    23   ar
    12    23    24   ar
    13    24    27    1
    14    27    28   ar
    15    28    29   ar
    16    29    30   ar
    17    30    33    1
    18    33    34   ar
    19    33    35   ar
    20    30    31   ar
    21    31    32   ar
    22    24    25   ar
    23    25    26   ar
    24     4     5   am
    25     5     6    2
    26     5     7    1
    27     7     8    1
    28     8     9    1
    29     9    10    1
    30    10    36    1
    31    36    37    1
    32    37    38   ar
    33    38    39   ar
    34    39    40   ar
    35    40    41   ar
    36    41    42   ar
    37    42    43    1
    38    10    11    1
    39    11    12    1
    40    15    16   ar
    41    16    17   ar
    42    17    18   ar
    43    18    13   ar
    44     7     1    1
    45    42    37   ar
    46    26    21   ar
    47    12     7    1
    48    32    27   ar
