@<TRIPOS>MOLECULE
*****
 19 20 0 0 0
SMALL
GASTEIGER

@<TRIPOS>ATOM
      1 C          61.6548   86.3191    9.5391 C.ar    1  UNL1       -0.0228
      2 C          61.5333   85.9693   10.9927 C.ar    1  UNL1       -0.0038
      3 C          62.3695   84.8665   11.5711 C.ar    1  UNL1        0.0058
      4 C          63.3272   84.1136   10.6960 C.ar    1  UNL1        0.0252
      5 C          63.4488   84.4634    9.2425 C.ar    1  UNL1        0.0058
      6 C          62.6125   85.5662    8.6641 C.ar    1  UNL1       -0.0038
      7 C          60.0311   86.4138    8.1772 C.3     1  UNL1        0.0044
      8 C          60.8186   87.4219    8.9607 C.3     1  UNL1        0.0189
      9 C          61.6060   88.4299    9.7441 C.3     1  UNL1        0.0044
     10 C          59.9823   88.5247    8.3822 C.3     1  UNL1        0.0044
     11 S          64.1635   83.0108   11.2745 S.3     1  UNL1       -0.1133
     12 C          63.5434   82.0053   12.1988 C.3     1  UNL1        0.0685
     13 C          63.8976   82.0079   13.6564 C.3     1  UNL1        0.0572
     14 C          63.6418   83.2298   14.4882 C.ar    1  UNL1        0.0550
     15 C          62.3145   83.6591   15.0395 C.ar    1  UNL1        0.1131
     16 N          62.5208   84.9315   15.8066 N.ar    1  UNL1       -0.2229
     17 C          63.9757   85.2885   15.7295 C.ar    1  UNL1        0.1748
     18 N          64.6685   84.2368   14.9146 N.ar    1  UNL1       -0.3382
     19 H          65.6285   84.2119   14.6977 H       1  UNL1        0.1672
@<TRIPOS>BOND
     1     7     8    1
     2     8     9    1
     3     8    10    1
     4     8     1    1
     5     1     2   ar
     6     2     3   ar
     7     3     4   ar
     8     4    11    1
     9    11    12    1
    10    12    13    1
    11    13    14    1
    12    14    15   ar
    13    15    16   ar
    14    16    17   ar
    15    17    18   ar
    16     4     5   ar
    17     5     6   ar
    18     6     1   ar
    19    18    14   ar
    20    18    19    1
@<TRIPOS>MOLECULE
*****
 19 20 0 0 0
SMALL
GASTEIGER

@<TRIPOS>ATOM
      1 C          62.8744   84.6563   10.7987 C.ar    1  UNL1       -0.0228
      2 C          62.9300   84.9301    9.3250 C.ar    1  UNL1       -0.0038
      3 C          62.0744   86.0088    8.7297 C.ar    1  UNL1        0.0058
      4 C          61.1633   86.8138    9.6082 C.ar    1  UNL1        0.0252
      5 C          61.1078   86.5401   11.0819 C.ar    1  UNL1        0.0058
      6 C          61.9633   85.4614   11.6772 C.ar    1  UNL1       -0.0038
      7 C          64.0652   83.0841   10.0177 C.3     1  UNL1        0.0044
      8 C          63.7300   83.5776   11.3940 C.3     1  UNL1        0.0189
      9 C          63.3947   84.0711   12.7702 C.3     1  UNL1        0.0044
     10 C          64.5855   82.4989   11.9892 C.3     1  UNL1        0.0044
     11 S          60.3078   87.8926    9.0129 S.3     1  UNL1       -0.1133
     12 C          60.7208   89.3295    9.1334 C.3     1  UNL1        0.0685
     13 C          60.5510   90.0520   10.4369 C.3     1  UNL1        0.0572
     14 C          61.7418   90.3107   11.3117 C.ar    1  UNL1        0.0550
     15 C          62.9934   91.0315   10.9066 C.ar    1  UNL1        0.1131
     16 N          63.9152   91.0604   12.0895 N.ar    1  UNL1       -0.2229
     17 C          63.2333   90.3575   13.2258 C.ar    1  UNL1        0.1748
     18 N          61.8901   89.8942   12.7450 N.ar    1  UNL1       -0.3382
     19 H          61.2229   89.4030   13.2769 H       1  UNL1        0.1672
@<TRIPOS>BOND
     1     7     8    1
     2     8     9    1
     3     8    10    1
     4     8     1    1
     5     1     2   ar
     6     2     3   ar
     7     3     4   ar
     8     4    11    1
     9    11    12    1
    10    12    13    1
    11    13    14    1
    12    14    15   ar
    13    15    16   ar
    14    16    17   ar
    15    17    18   ar
    16     4     5   ar
    17     5     6   ar
    18     6     1   ar
    19    18    14   ar
    20    18    19    1
@<TRIPOS>MOLECULE
*****
 19 20 0 0 0
SMALL
GASTEIGER

@<TRIPOS>ATOM
      1 C          61.5140   86.6431    9.4610 C.ar    1  UNL1       -0.0228
      2 C          61.4241   86.2285   10.8997 C.ar    1  UNL1       -0.0038
      3 C          62.2441   85.0768   11.4010 C.ar    1  UNL1        0.0058
      4 C          63.1540   84.3398   10.4636 C.ar    1  UNL1        0.0252
      5 C          63.2440   84.7544    9.0249 C.ar    1  UNL1        0.0058
      6 C          62.4240   85.9061    8.5236 C.ar    1  UNL1       -0.0038
      7 C          59.8161   86.8411    8.2049 C.3     1  UNL1        0.0044
      8 C          60.6941   87.7947    8.9597 C.3     1  UNL1        0.0189
      9 C          61.5720   88.7484    9.7144 C.3     1  UNL1        0.0044
     10 C          59.8741   88.9464    8.4584 C.3     1  UNL1        0.0044
     11 S          63.9740   83.1881   10.9650 S.3     1  UNL1       -0.1133
     12 C          64.8485   83.3592   12.1716 C.3     1  UNL1        0.0685
     13 C          64.3189   83.0262   13.5349 C.3     1  UNL1        0.0572
     14 C          63.2080   82.0294   13.6852 C.ar    1  UNL1        0.0550
     15 C          61.8672   82.2904   14.3049 C.ar    1  UNL1        0.1131
     16 N          61.0734   81.0191   14.2448 N.ar    1  UNL1       -0.2229
     17 C          61.9237   79.9724   13.5879 C.ar    1  UNL1        0.1748
     18 N          63.2429   80.5968   13.2421 N.ar    1  UNL1       -0.3382
     19 H          63.9990   80.1456   12.8016 H       1  UNL1        0.1672
@<TRIPOS>BOND
     1     7     8    1
     2     8     9    1
     3     8    10    1
     4     8     1    1
     5     1     2   ar
     6     2     3   ar
     7     3     4   ar
     8     4    11    1
     9    11    12    1
    10    12    13    1
    11    13    14    1
    12    14    15   ar
    13    15    16   ar
    14    16    17   ar
    15    17    18   ar
    16     4     5   ar
    17     5     6   ar
    18     6     1   ar
    19    18    14   ar
    20    18    19    1
@<TRIPOS>MOLECULE
*****
 19 20 0 0 0
SMALL
GASTEIGER

@<TRIPOS>ATOM
      1 C          65.8311   91.7117   13.9681 C.ar    1  UNL1       -0.0228
      2 C          65.7172   92.3975   12.6390 C.ar    1  UNL1       -0.0038
      3 C          64.6598   91.9723   11.6637 C.ar    1  UNL1        0.0058
      4 C          63.7164   90.8612   12.0176 C.ar    1  UNL1        0.0252
      5 C          63.8303   90.1753   13.3467 C.ar    1  UNL1        0.0058
      6 C          64.8876   90.6006   14.3219 C.ar    1  UNL1       -0.0038
      7 C          67.9450   91.8789   13.9103 C.3     1  UNL1        0.0044
      8 C          66.8885   92.1370   14.9433 C.3     1  UNL1        0.0189
      9 C          65.8319   92.3950   15.9763 C.3     1  UNL1        0.0044
     10 C          67.9459   92.5622   15.9186 C.3     1  UNL1        0.0044
     11 S          62.6590   90.4359   11.0423 S.3     1  UNL1       -0.1133
     12 C          61.9362   89.1364   11.2391 C.3     1  UNL1        0.0685
     13 C          62.0318   88.0600   10.1989 C.3     1  UNL1        0.0572
     14 C          60.9059   87.8511    9.2300 C.ar    1  UNL1        0.0550
     15 C          60.1229   88.9301    8.5422 C.ar    1  UNL1        0.1131
     16 N          59.0984   88.2726    7.6659 N.ar    1  UNL1       -0.2229
     17 C          59.2481   86.7872    7.8121 C.ar    1  UNL1        0.1748
     18 N          60.3651   86.5268    8.7787 N.ar    1  UNL1       -0.3382
     19 H          60.6869   85.6420    9.0664 H       1  UNL1        0.1672
@<TRIPOS>BOND
     1     7     8    1
     2     8     9    1
     3     8    10    1
     4     8     1    1
     5     1     2   ar
     6     2     3   ar
     7     3     4   ar
     8     4    11    1
     9    11    12    1
    10    12    13    1
    11    13    14    1
    12    14    15   ar
    13    15    16   ar
    14    16    17   ar
    15    17    18   ar
    16     4     5   ar
    17     5     6   ar
    18     6     1   ar
    19    18    14   ar
    20    18    19    1
@<TRIPOS>MOLECULE
*****
 19 20 0 0 0
SMALL
GASTEIGER

@<TRIPOS>ATOM
      1 C          61.7688   88.2684   10.0397 C.ar    1  UNL1       -0.0228
      2 C          61.8239   89.7222    9.6745 C.ar    1  UNL1       -0.0038
      3 C          62.5393   90.6930   10.5665 C.ar    1  UNL1        0.0058
      4 C          63.1996   90.2100   11.8237 C.ar    1  UNL1        0.0252
      5 C          63.1445   88.7563   12.1889 C.ar    1  UNL1        0.0058
      6 C          62.4291   87.7854   11.2969 C.ar    1  UNL1       -0.0038
      7 C          60.0448   88.3541    8.8066 C.3     1  UNL1        0.0044
      8 C          61.0535   87.2975    9.1476 C.3     1  UNL1        0.0189
      9 C          62.0621   86.2410    9.4886 C.3     1  UNL1        0.0044
     10 C          60.3381   86.3267    8.2556 C.3     1  UNL1        0.0044
     11 S          63.9149   91.1809   12.7158 S.3     1  UNL1       -0.1133
     12 C          64.7281   92.2903   12.1174 C.3     1  UNL1        0.0685
     13 C          66.2258   92.2426   12.1842 C.3     1  UNL1        0.0572
     14 C          67.0424   92.6162   10.9826 C.ar    1  UNL1        0.0550
     15 C          66.6464   93.5950    9.9171 C.ar    1  UNL1        0.1131
     16 N          67.7575   93.6603    8.9116 N.ar    1  UNL1       -0.2229
     17 C          68.8402   92.7218    9.3556 C.ar    1  UNL1        0.1748
     18 N          68.3982   92.0765   10.6355 N.ar    1  UNL1       -0.3382
     19 H          68.9084   91.4150   11.1563 H       1  UNL1        0.1672
@<TRIPOS>BOND
     1     7     8    1
     2     8     9    1
     3     8    10    1
     4     8     1    1
     5     1     2   ar
     6     2     3   ar
     7     3     4   ar
     8     4    11    1
     9    11    12    1
    10    12    13    1
    11    13    14    1
    12    14    15   ar
    13    15    16   ar
    14    16    17   ar
    15    17    18   ar
    16     4     5   ar
    17     5     6   ar
    18     6     1   ar
    19    18    14   ar
    20    18    19    1
@<TRIPOS>MOLECULE
*****
 19 20 0 0 0
SMALL
GASTEIGER

@<TRIPOS>ATOM
      1 C          61.8789   87.4827   10.0158 C.ar    1  UNL1       -0.0228
      2 C          62.0493   88.9713    9.9458 C.ar    1  UNL1       -0.0038
      3 C          62.7137   89.7040   11.0736 C.ar    1  UNL1        0.0058
      4 C          63.2076   88.9480   12.2713 C.ar    1  UNL1        0.0252
      5 C          63.0371   87.4594   12.3412 C.ar    1  UNL1        0.0058
      6 C          62.3728   86.7268   11.2135 C.ar    1  UNL1       -0.0038
      7 C          59.9920   87.6032    9.0539 C.3     1  UNL1        0.0044
      8 C          61.2145   86.7501    8.8880 C.3     1  UNL1        0.0189
      9 C          62.4371   85.8969    8.7221 C.3     1  UNL1        0.0044
     10 C          60.5502   86.0174    7.7602 C.3     1  UNL1        0.0044
     11 S          63.8719   89.6807   13.3990 S.3     1  UNL1       -0.1133
     12 C          63.9327   91.1794   13.3872 C.3     1  UNL1        0.0685
     13 C          65.1931   91.8756   12.9668 C.3     1  UNL1        0.0572
     14 C          66.2457   92.2006   13.9850 C.ar    1  UNL1        0.0550
     15 C          66.0100   92.4696   15.4417 C.ar    1  UNL1        0.1131
     16 N          67.3374   92.7489   16.0822 N.ar    1  UNL1       -0.2229
     17 C          68.3934   92.6525   15.0212 C.ar    1  UNL1        0.1748
     18 N          67.7187   92.3136   13.7251 N.ar    1  UNL1       -0.3382
     19 H          68.1644   92.1875   12.8564 H       1  UNL1        0.1672
@<TRIPOS>BOND
     1     7     8    1
     2     8     9    1
     3     8    10    1
     4     8     1    1
     5     1     2   ar
     6     2     3   ar
     7     3     4   ar
     8     4    11    1
     9    11    12    1
    10    12    13    1
    11    13    14    1
    12    14    15   ar
    13    15    16   ar
    14    16    17   ar
    15    17    18   ar
    16     4     5   ar
    17     5     6   ar
    18     6     1   ar
    19    18    14   ar
    20    18    19    1
@<TRIPOS>MOLECULE
*****
 19 20 0 0 0
SMALL
GASTEIGER

@<TRIPOS>ATOM
      1 C          64.4951   91.2824   12.3922 C.ar    1  UNL1       -0.0228
      2 C          64.0533   91.6365   11.0032 C.ar    1  UNL1       -0.0038
      3 C          63.0865   90.7506   10.2749 C.ar    1  UNL1        0.0058
      4 C          62.5614   89.5106   10.9357 C.ar    1  UNL1        0.0252
      5 C          63.0032   89.1566   12.3248 C.ar    1  UNL1        0.0058
      6 C          63.9700   90.0425   13.0530 C.ar    1  UNL1       -0.0038
      7 C          65.5661   93.0491   11.9107 C.3     1  UNL1        0.0044
      8 C          65.4620   92.1684   13.1204 C.3     1  UNL1        0.0189
      9 C          65.3579   91.2876   14.3301 C.3     1  UNL1        0.0044
     10 C          66.4289   93.0543   13.8486 C.3     1  UNL1        0.0044
     11 S          61.5945   88.6247   10.2075 S.3     1  UNL1       -0.1133
     12 C          61.9410   87.1881    9.9502 C.3     1  UNL1        0.0685
     13 C          61.4688   86.1221   10.8939 C.3     1  UNL1        0.0572
     14 C          62.4656   85.2984   11.6543 C.ar    1  UNL1        0.0550
     15 C          63.0994   84.0236   11.1819 C.ar    1  UNL1        0.1131
     16 N          64.0290   83.5423   12.2562 N.ar    1  UNL1       -0.2229
     17 C          63.9696   84.5196   13.3927 C.ar    1  UNL1        0.1748
     18 N          63.0034   85.6049   13.0206 N.ar    1  UNL1       -0.3382
     19 H          62.7641   86.3820   13.5758 H       1  UNL1        0.1672
@<TRIPOS>BOND
     1     7     8    1
     2     8     9    1
     3     8    10    1
     4     8     1    1
     5     1     2   ar
     6     2     3   ar
     7     3     4   ar
     8     4    11    1
     9    11    12    1
    10    12    13    1
    11    13    14    1
    12    14    15   ar
    13    15    16   ar
    14    16    17   ar
    15    17    18   ar
    16     4     5   ar
    17     5     6   ar
    18     6     1   ar
    19    18    14   ar
    20    18    19    1
@<TRIPOS>MOLECULE
*****
 19 20 0 0 0
SMALL
GASTEIGER

@<TRIPOS>ATOM
      1 C          61.1785   87.6925    9.3914 C.ar    1  UNL1       -0.0228
      2 C          60.6453   89.0937    9.3448 C.ar    1  UNL1       -0.0038
      3 C          61.1241   90.1118   10.3370 C.ar    1  UNL1        0.0058
      4 C          62.1361   89.7286   11.3757 C.ar    1  UNL1        0.0252
      5 C          62.6693   88.3274   11.4223 C.ar    1  UNL1        0.0058
      6 C          62.1905   87.3094   10.4302 C.ar    1  UNL1       -0.0038
      7 C          61.9667   85.8941    8.5886 C.3     1  UNL1        0.0044
      8 C          60.6997   86.6744    8.3993 C.3     1  UNL1        0.0189
      9 C          59.4327   87.4547    8.2101 C.3     1  UNL1        0.0044
     10 C          60.2209   85.6564    7.4072 C.3     1  UNL1        0.0044
     11 S          62.6149   90.7467   12.3678 S.3     1  UNL1       -0.1133
     12 C          64.0846   90.9900   12.5428 C.3     1  UNL1        0.0685
     13 C          64.7219   90.7969   13.8869 C.3     1  UNL1        0.0572
     14 C          64.1641   89.7845   14.8430 C.ar    1  UNL1        0.0550
     15 C          64.3059   88.2953   14.7321 C.ar    1  UNL1        0.1131
     16 N          63.5961   87.6739   15.8983 N.ar    1  UNL1       -0.2229
     17 C          63.0156   88.7792   16.7299 C.ar    1  UNL1        0.1748
     18 N          63.3666   90.0835   16.0777 N.ar    1  UNL1       -0.3382
     19 H          63.1174   90.9787   16.4029 H       1  UNL1        0.1672
@<TRIPOS>BOND
     1     7     8    1
     2     8     9    1
     3     8    10    1
     4     8     1    1
     5     1     2   ar
     6     2     3   ar
     7     3     4   ar
     8     4    11    1
     9    11    12    1
    10    12    13    1
    11    13    14    1
    12    14    15   ar
    13    15    16   ar
    14    16    17   ar
    15    17    18   ar
    16     4     5   ar
    17     5     6   ar
    18     6     1   ar
    19    18    14   ar
    20    18    19    1
@<TRIPOS>MOLECULE
*****
 19 20 0 0 0
SMALL
GASTEIGER

@<TRIPOS>ATOM
      1 C          65.7874   91.7559   13.8292 C.ar    1  UNL1       -0.0228
      2 C          65.7886   92.4525   12.5008 C.ar    1  UNL1       -0.0038
      3 C          64.7505   92.1104   11.4735 C.ar    1  UNL1        0.0058
      4 C          63.7110   91.0717   11.7747 C.ar    1  UNL1        0.0252
      5 C          63.7098   90.3751   13.1031 C.ar    1  UNL1        0.0058
      6 C          64.7479   90.7172   14.1304 C.ar    1  UNL1       -0.0038
      7 C          65.7448   92.3387   15.8684 C.3     1  UNL1        0.0044
      8 C          66.8255   92.0979   14.8564 C.3     1  UNL1        0.0189
      9 C          67.9062   91.8572   13.8444 C.3     1  UNL1        0.0044
     10 C          67.8637   92.4400   15.8837 C.3     1  UNL1        0.0044
     11 S          62.6729   90.7296   10.7475 S.3     1  UNL1       -0.1133
     12 C          62.5864   89.3341   10.2045 C.3     1  UNL1        0.0685
     13 C          61.5791   88.3731   10.7629 C.3     1  UNL1        0.0572
     14 C          62.0095   87.0030   11.1961 C.ar    1  UNL1        0.0550
     15 C          61.6779   85.7145   10.5033 C.ar    1  UNL1        0.1131
     16 N          62.3105   84.5960   11.2770 N.ar    1  UNL1       -0.2229
     17 C          63.0332   85.1932   12.4480 C.ar    1  UNL1        0.1748
     18 N          62.8472   86.6808   12.3979 N.ar    1  UNL1       -0.3382
     19 H          63.2110   87.3314   13.0410 H       1  UNL1        0.1672
@<TRIPOS>BOND
     1     7     8    1
     2     8     9    1
     3     8    10    1
     4     8     1    1
     5     1     2   ar
     6     2     3   ar
     7     3     4   ar
     8     4    11    1
     9    11    12    1
    10    12    13    1
    11    13    14    1
    12    14    15   ar
    13    15    16   ar
    14    16    17   ar
    15    17    18   ar
    16     4     5   ar
    17     5     6   ar
    18     6     1   ar
    19    18    14   ar
    20    18    19    1
