@<TRIPOS>MOLECULE
*****
 50 56 0 0 0
SMALL
GASTEIGER

@<TRIPOS>ATOM
      1 C          62.8129   85.9810   12.2927 C.2     1  UNL1       -0.0154
      2 C          63.2187   84.7899   13.1093 C.2     1  UNL1        0.0743
      3 N          64.0961   85.2714   14.2267 N.2     1  UNL1       -0.2432
      4 C          64.2326   86.7598   14.1006 C.2     1  UNL1        0.0953
      5 S          64.8592   87.9772   14.7132 S.3     1  UNL1       -0.0759
      6 C          64.4533   89.1681   13.8966 C.2     1  UNL1        0.0124
      7 C          63.5759   88.6868   12.7792 C.2     1  UNL1       -0.0132
      8 C          63.4395   87.1984   12.9053 C.3     1  UNL1        0.0883
      9 C          62.8176   83.3675   12.8536 C.ar    1  UNL1        0.0164
     10 C          61.9099   82.6596   13.8154 C.ar    1  UNL1       -0.0028
     11 C          61.5087   81.2371   13.5596 C.ar    1  UNL1       -0.0221
     12 C          60.6010   80.5292   14.5215 C.3     1  UNL1        0.0310
     13 C          62.0153   80.5223   12.3419 C.ar    1  UNL1       -0.0085
     14 C          62.9230   81.2301   11.3801 C.ar    1  UNL1       -0.0221
     15 C          63.4295   80.5154   10.1625 C.3     1  UNL1        0.0310
     16 C          63.3241   82.6527   11.6360 C.ar    1  UNL1       -0.0028
     17 C          64.8545   90.5907   14.1523 C.3     1  UNL1        0.0931
     18 C          63.5438   91.0606   13.5944 C.3     1  UNL1        0.0140
     19 C          66.1652   90.1208   14.7103 C.3     1  UNL1        0.0140
     20 C          65.2556   92.0133   14.4081 C.2     1  UNL1        0.2289
     21 O          65.1557   92.5835   15.7918 O.2     1  UNL1       -0.2745
     22 N          65.7567   92.8656   13.2800 N.am    1  UNL1       -0.2825
     23 C          65.9106   92.4358   11.8512 C.3     1  UNL1        0.0754
     24 C          66.4409   93.6019   11.0709 C.3     1  UNL1        0.0215
     25 C          66.6148   94.7525   12.0174 C.3     1  UNL1        0.0215
     26 C          66.1920   94.2974   13.3828 C.3     1  UNL1        0.0754
     27 C          65.6616   93.1312   14.1631 C.3     1  UNL1        0.0215
     28 C          65.4878   91.9807   13.2166 C.3     1  UNL1        0.0215
     29 C          61.9346   85.9585   11.0769 C.3     1  UNL1        0.0416
     30 C          60.6966   86.8042   11.0302 C.3     1  UNL1        0.0766
     31 N          59.4573   88.7682    7.1758 N.3     1  UNL1       -0.2682
     32 C          59.3325   87.2818    7.3341 C.3     1  UNL1        0.0897
     33 C          59.7456   86.6271    8.6189 C.3     1  UNL1        0.0897
     34 N          60.2835   87.4588    9.7454 N.3     1  UNL1       -0.2700
     35 C          60.4082   88.9452    9.5871 C.3     1  UNL1        0.0897
     36 C          59.9951   89.5999    8.3023 C.3     1  UNL1        0.0897
     37 C          59.0442   89.4229    5.8910 C.3     1  UNL1        0.1032
     38 C          59.5329   90.8021    5.5610 C.3     1  UNL1        0.1423
     39 O          58.6084   91.9762    5.6901 O.3     1  UNL1       -0.3816
     40 H          57.7396   91.6716    5.9956 H       1  UNL1        0.2105
     41 C          60.9462   91.0072    5.1020 C.3     1  UNL1        0.1032
     42 C          63.3920   94.0766   -0.5412 C.3     1  UNL1        0.0948
     43 C          62.0559   94.1809    0.1325 C.2     1  UNL1        0.2262
     44 O          60.9972   95.0785   -0.4362 O.2     1  UNL1       -0.2749
     45 N          61.7785   93.3874    1.3749 N.am    1  UNL1       -0.2767
     46 C          62.8372   92.4898    1.9436 C.3     1  UNL1        0.1107
     47 C          62.5598   91.6964    3.1859 C.3     1  UNL1        0.0940
     48 N          61.2236   91.8006    3.8597 N.3     1  UNL1       -0.2677
     49 C          60.1649   92.6982    3.2910 C.3     1  UNL1        0.0940
     50 C          60.4424   93.4917    2.0486 C.3     1  UNL1        0.1107
@<TRIPOS>BOND
     1    42    43    1
     2    43    44    2
     3    43    45   am
     4    45    46    1
     5    46    47    1
     6    47    48    1
     7    48    41    1
     8    41    38    1
     9    38    39    1
    10    38    37    1
    11    37    31    1
    12    31    32    1
    13    32    33    1
    14    33    34    1
    15    34    30    1
    16    30    29    1
    17    29     1    1
    18     1     2    2
    19     2     9    1
    20     9    10   ar
    21    10    11   ar
    22    11    12    1
    23    11    13   ar
    24    13    14   ar
    25    14    15    1
    26    14    16   ar
    27     2     3    1
    28     3     4    2
    29     4     5    1
    30     5     6    1
    31     6    17    1
    32    17    18    1
    33    17    19    1
    34    17    20    1
    35    20    21    2
    36    20    22   am
    37    22    23    1
    38    23    24    1
    39    24    25    1
    40    25    26    1
    41    26    27    1
    42    27    28    1
    43     6     7    2
    44     7     8    1
    45    34    35    1
    46    35    36    1
    47    48    49    1
    48    49    50    1
    49    50    45    1
    50    36    31    1
    51     8     1    1
    52    16     9   ar
    53     8     4    1
    54    26    22    1
    55    28    23    1
    56    39    40    1
@<TRIPOS>MOLECULE
*****
 50 56 0 0 0
SMALL
GASTEIGER

@<TRIPOS>ATOM
      1 C          64.0045   89.3573   13.1003 C.2     1  UNL1       -0.0154
      2 C          64.3977   88.9061   14.4758 C.2     1  UNL1        0.0743
      3 N          65.2091   89.9981   15.1076 N.2     1  UNL1       -0.2432
      4 C          65.3174   91.1243   14.1226 C.2     1  UNL1        0.0953
      5 S          65.8858   92.4951   13.9044 S.3     1  UNL1       -0.0759
      6 C          65.4926   92.9463   12.5290 C.2     1  UNL1        0.0124
      7 C          64.6813   91.8543   11.8971 C.2     1  UNL1       -0.0132
      8 C          64.5729   90.7282   12.8821 C.3     1  UNL1        0.0883
      9 C          64.0420   87.5934   15.1083 C.ar    1  UNL1        0.0164
     10 C          64.2917   86.3124   14.3688 C.ar    1  UNL1       -0.0028
     11 C          63.9359   84.9997   15.0013 C.ar    1  UNL1       -0.0221
     12 C          64.1856   83.7186   14.2619 C.3     1  UNL1        0.0310
     13 C          63.3304   84.9679   16.3734 C.ar    1  UNL1       -0.0085
     14 C          63.0807   86.2488   17.1129 C.ar    1  UNL1       -0.0221
     15 C          62.4752   86.2170   18.4849 C.3     1  UNL1        0.0310
     16 C          63.4365   87.5616   16.4803 C.ar    1  UNL1       -0.0028
     17 C          65.8484   94.2591   11.8964 C.3     1  UNL1        0.0931
     18 C          66.6405   94.6314   13.1146 C.3     1  UNL1        0.0140
     19 C          65.0563   93.8867   10.6782 C.3     1  UNL1        0.0140
     20 C          66.2041   95.5718   11.2638 C.2     1  UNL1        0.2289
     21 O          65.9222   96.8544   11.9885 O.2     1  UNL1       -0.2745
     22 N          66.8419   95.6019    9.9064 N.am    1  UNL1       -0.2825
     23 C          67.1822   94.4073    9.0655 C.3     1  UNL1        0.0754
     24 C          67.8018   94.8989    7.7911 C.3     1  UNL1        0.0215
     25 C          67.8445   96.3974    7.8442 C.3     1  UNL1        0.0215
     26 C          67.2512   96.8318    9.1516 C.3     1  UNL1        0.0754
     27 C          66.6315   96.3402   10.4261 C.3     1  UNL1        0.0215
     28 C          66.5889   94.8418   10.3729 C.3     1  UNL1        0.0215
     29 C          63.1866   88.5750   12.1159 C.3     1  UNL1        0.0416
     30 C          61.7108   88.8195   12.0050 C.3     1  UNL1        0.0766
     31 N          59.7395   88.8902    7.9604 N.3     1  UNL1       -0.2682
     32 C          59.8562   90.1540    8.7600 C.3     1  UNL1        0.0897
     33 C          60.5133   90.1304   10.1082 C.3     1  UNL1        0.0897
     34 N          61.0537   88.8431   10.6568 N.3     1  UNL1       -0.2700
     35 C          60.9370   87.5794    9.8572 C.3     1  UNL1        0.0897
     36 C          60.2799   87.6030    8.5090 C.3     1  UNL1        0.0897
     37 C          59.0824   88.9137    6.6122 C.3     1  UNL1        0.1032
     38 C          59.0834   90.1743    5.7993 C.3     1  UNL1        0.1423
     39 O          57.8064   90.6776    5.1944 O.3     1  UNL1       -0.3816
     40 H          57.0810   90.0758    5.4234 H       1  UNL1        0.2105
     41 C          60.3614   90.9316    5.5913 C.3     1  UNL1        0.1032
     42 C          62.7140   93.6533   -0.2660 C.3     1  UNL1        0.0948
     43 C          61.3679   93.7467    0.3891 C.2     1  UNL1        0.2262
     44 O          60.2734   94.5438   -0.2564 O.2     1  UNL1       -0.2749
     45 N          61.1162   93.0429    1.6896 N.am    1  UNL1       -0.2767
     46 C          62.2108   92.2458    2.3351 C.3     1  UNL1        0.1107
     47 C          61.9592   91.5420    3.6356 C.3     1  UNL1        0.0940
     48 N          60.6130   91.6354    4.2907 N.3     1  UNL1       -0.2677
     49 C          59.5185   92.4325    3.6453 C.3     1  UNL1        0.0940
     50 C          59.7701   93.1363    2.3447 C.3     1  UNL1        0.1107
@<TRIPOS>BOND
     1    42    43    1
     2    43    44    2
     3    43    45   am
     4    45    46    1
     5    46    47    1
     6    47    48    1
     7    48    41    1
     8    41    38    1
     9    38    39    1
    10    38    37    1
    11    37    31    1
    12    31    32    1
    13    32    33    1
    14    33    34    1
    15    34    30    1
    16    30    29    1
    17    29     1    1
    18     1     2    2
    19     2     9    1
    20     9    10   ar
    21    10    11   ar
    22    11    12    1
    23    11    13   ar
    24    13    14   ar
    25    14    15    1
    26    14    16   ar
    27     2     3    1
    28     3     4    2
    29     4     5    1
    30     5     6    1
    31     6    17    1
    32    17    18    1
    33    17    19    1
    34    17    20    1
    35    20    21    2
    36    20    22   am
    37    22    23    1
    38    23    24    1
    39    24    25    1
    40    25    26    1
    41    26    27    1
    42    27    28    1
    43     6     7    2
    44     7     8    1
    45    34    35    1
    46    35    36    1
    47    48    49    1
    48    49    50    1
    49    50    45    1
    50    36    31    1
    51     8     1    1
    52    16     9   ar
    53     8     4    1
    54    26    22    1
    55    28    23    1
    56    39    40    1
@<TRIPOS>MOLECULE
*****
 50 56 0 0 0
SMALL
GASTEIGER

@<TRIPOS>ATOM
      1 C          62.9014   86.0720   12.2585 C.2     1  UNL1       -0.0154
      2 C          63.2568   84.8778   13.0939 C.2     1  UNL1        0.0743
      3 N          64.0917   85.3508   14.2469 N.2     1  UNL1       -0.2432
      4 C          64.2522   86.8371   14.1242 C.2     1  UNL1        0.0953
      5 S          64.8673   88.0479   14.7610 S.3     1  UNL1       -0.0759
      6 C          64.5118   89.2420   13.9256 C.2     1  UNL1        0.0124
      7 C          63.6770   88.7691   12.7726 C.2     1  UNL1       -0.0132
      8 C          63.5165   87.2828   12.8953 C.3     1  UNL1        0.0883
      9 C          62.8491   83.4599   12.8237 C.ar    1  UNL1        0.0164
     10 C          63.3351   82.7622   11.5879 C.ar    1  UNL1       -0.0028
     11 C          62.9273   81.3443   11.3177 C.ar    1  UNL1       -0.0221
     12 C          63.4133   80.6466   10.0819 C.3     1  UNL1        0.0310
     13 C          62.0335   80.6239   12.2832 C.ar    1  UNL1       -0.0085
     14 C          61.5474   81.3215   13.5190 C.ar    1  UNL1       -0.0221
     15 C          60.6537   80.6012   14.4845 C.3     1  UNL1        0.0310
     16 C          61.9553   82.7396   13.7892 C.ar    1  UNL1       -0.0028
     17 C          64.9196   90.6600   14.1959 C.3     1  UNL1        0.0931
     18 C          63.5722   91.1346   13.7385 C.3     1  UNL1        0.0140
     19 C          66.2671   90.1853   14.6532 C.3     1  UNL1        0.0140
     20 C          65.3274   92.0780   14.4661 C.2     1  UNL1        0.2289
     21 O          65.2812   92.6182   15.8646 O.2     1  UNL1       -0.2745
     22 N          65.7814   92.9559   13.3376 N.am    1  UNL1       -0.2825
     23 C          65.8794   92.5572   11.8949 C.3     1  UNL1        0.0754
     24 C          66.3757   93.7414   11.1195 C.3     1  UNL1        0.0215
     25 C          66.5844   94.8720   12.0829 C.3     1  UNL1        0.0215
     26 C          66.2171   94.3864   13.4538 C.3     1  UNL1        0.0754
     27 C          65.7208   93.2022   14.2293 C.3     1  UNL1        0.0215
     28 C          65.5121   92.0717   13.2658 C.3     1  UNL1        0.0215
     29 C          62.0757   86.0578   11.0063 C.3     1  UNL1        0.0416
     30 C          60.7539   86.7661   10.9714 C.3     1  UNL1        0.0766
     31 N          59.4030   88.8241    7.2044 N.3     1  UNL1       -0.2682
     32 C          59.2888   87.3335    7.3269 C.3     1  UNL1        0.0897
     33 C          59.7391   86.6474    8.5826 C.3     1  UNL1        0.0897
     34 N          60.3036   87.4521    9.7157 N.3     1  UNL1       -0.2700
     35 C          60.4178   88.9427    9.5932 C.3     1  UNL1        0.0897
     36 C          59.9675   89.6287    8.3376 C.3     1  UNL1        0.0897
     37 C          58.9527   89.5101    5.9488 C.3     1  UNL1        0.1032
     38 C          59.5610   90.8225    5.5517 C.3     1  UNL1        0.1423
     39 O          58.7307   92.0715    5.5750 O.3     1  UNL1       -0.3816
     40 H          57.8313   91.8565    5.8677 H       1  UNL1        0.2105
     41 C          60.9995   90.8858    5.1314 C.3     1  UNL1        0.1032
     42 C          61.5762   94.8859   -0.4289 C.3     1  UNL1        0.0948
     43 C          62.5551   93.9466    0.2108 C.2     1  UNL1        0.2262
     44 O          63.9230   93.7724   -0.3797 O.2     1  UNL1       -0.2749
     45 N          62.1662   93.1814    1.4409 N.am    1  UNL1       -0.2767
     46 C          60.7984   93.3556    2.0314 C.3     1  UNL1        0.1107
     47 C          60.4095   92.5904    3.2615 C.3     1  UNL1        0.0940
     48 N          61.3884   91.6510    3.9013 N.3     1  UNL1       -0.2677
     49 C          62.7563   91.4768    3.3108 C.3     1  UNL1        0.0940
     50 C          63.1452   92.2420    2.0806 C.3     1  UNL1        0.1107
@<TRIPOS>BOND
     1    42    43    1
     2    43    44    2
     3    43    45   am
     4    45    46    1
     5    46    47    1
     6    47    48    1
     7    48    41    1
     8    41    38    1
     9    38    39    1
    10    38    37    1
    11    37    31    1
    12    31    32    1
    13    32    33    1
    14    33    34    1
    15    34    30    1
    16    30    29    1
    17    29     1    1
    18     1     2    2
    19     2     9    1
    20     9    10   ar
    21    10    11   ar
    22    11    12    1
    23    11    13   ar
    24    13    14   ar
    25    14    15    1
    26    14    16   ar
    27     2     3    1
    28     3     4    2
    29     4     5    1
    30     5     6    1
    31     6    17    1
    32    17    18    1
    33    17    19    1
    34    17    20    1
    35    20    21    2
    36    20    22   am
    37    22    23    1
    38    23    24    1
    39    24    25    1
    40    25    26    1
    41    26    27    1
    42    27    28    1
    43     6     7    2
    44     7     8    1
    45    34    35    1
    46    35    36    1
    47    48    49    1
    48    49    50    1
    49    50    45    1
    50    36    31    1
    51     8     1    1
    52    16     9   ar
    53     8     4    1
    54    26    22    1
    55    28    23    1
    56    39    40    1
@<TRIPOS>MOLECULE
*****
 50 56 0 0 0
SMALL
GASTEIGER

@<TRIPOS>ATOM
      1 C          63.3620   87.4419   12.8112 C.2     1  UNL1       -0.0154
      2 C          64.1873   88.1229   13.8625 C.2     1  UNL1        0.0743
      3 N          64.7062   87.0712   14.7978 N.2     1  UNL1       -0.2432
      4 C          64.2016   85.7403   14.3246 C.2     1  UNL1        0.0953
      5 S          64.2104   84.2678   14.6103 S.3     1  UNL1       -0.0759
      6 C          63.3851   83.5868   13.5591 C.2     1  UNL1        0.0124
      7 C          62.8662   84.6384   12.6237 C.2     1  UNL1       -0.0132
      8 C          63.3708   85.9693   13.0969 C.3     1  UNL1        0.0883
      9 C          64.4479   89.5967   13.9611 C.ar    1  UNL1        0.0164
     10 C          64.6060   90.4156   12.7142 C.ar    1  UNL1       -0.0028
     11 C          64.8666   91.8894   12.8128 C.ar    1  UNL1       -0.0221
     12 C          65.0247   92.7082   11.5659 C.3     1  UNL1        0.0310
     13 C          64.9692   92.5446   14.1583 C.ar    1  UNL1       -0.0085
     14 C          64.8112   91.7258   15.4052 C.ar    1  UNL1       -0.0221
     15 C          64.9138   92.3810   16.7506 C.3     1  UNL1        0.0310
     16 C          64.5505   90.2519   15.3065 C.ar    1  UNL1       -0.0028
     17 C          63.1245   82.1129   13.4604 C.3     1  UNL1        0.0931
     18 C          61.7160   82.3307   13.9282 C.3     1  UNL1        0.0140
     19 C          64.5330   81.8951   12.9927 C.3     1  UNL1        0.0140
     20 C          62.8638   80.6390   13.3618 C.2     1  UNL1        0.2289
     21 O          62.6865   79.8236   14.6082 O.2     1  UNL1       -0.2745
     22 N          62.7805   79.9804   12.0166 N.am    1  UNL1       -0.2825
     23 C          62.9362   80.6626   10.6898 C.3     1  UNL1        0.0754
     24 C          62.7788   79.6279    9.6153 C.3     1  UNL1        0.0215
     25 C          62.5259   78.3062   10.2780 C.3     1  UNL1        0.0215
     26 C          62.5270   78.5241   11.7621 C.3     1  UNL1        0.0754
     27 C          62.6843   79.5588   12.8367 C.3     1  UNL1        0.0215
     28 C          62.9372   80.8805   12.1739 C.3     1  UNL1        0.0215
     29 C          62.6525   88.1151   11.6740 C.3     1  UNL1        0.0416
     30 C          61.3534   87.5617   11.1676 C.3     1  UNL1        0.0766
     31 N          59.5936   89.1095    7.3261 N.3     1  UNL1       -0.2682
     32 C          60.1455   90.0690    8.3384 C.3     1  UNL1        0.0897
     33 C          60.7322   89.5531    9.6189 C.3     1  UNL1        0.0897
     34 N          60.7668   88.0776    9.8871 N.3     1  UNL1       -0.2700
     35 C          60.2149   87.1182    8.8748 C.3     1  UNL1        0.0897
     36 C          59.6283   87.6341    7.5943 C.3     1  UNL1        0.0897
     37 C          59.0070   89.6254    6.0456 C.3     1  UNL1        0.1032
     38 C          59.4701   90.9365    5.4831 C.3     1  UNL1        0.1423
     39 O          58.5776   92.1400    5.5538 O.3     1  UNL1       -0.3816
     40 H          57.7451   91.9000    5.9898 H       1  UNL1        0.2105
     41 C          60.8256   91.0441    4.8500 C.3     1  UNL1        0.1032
     42 C          60.4993   95.4284   -0.4342 C.3     1  UNL1        0.0948
     43 C          61.6473   94.6320    0.1115 C.2     1  UNL1        0.2262
     44 O          63.0007   94.7325   -0.5274 O.2     1  UNL1       -0.2749
     45 N          61.4419   93.7350    1.2962 N.am    1  UNL1       -0.2767
     46 C          60.0885   93.6344    1.9350 C.3     1  UNL1        0.1107
     47 C          59.8830   92.7375    3.1196 C.3     1  UNL1        0.0940
     48 N          61.0311   91.9411    3.6654 N.3     1  UNL1       -0.2677
     49 C          62.3845   92.0416    3.0265 C.3     1  UNL1        0.0940
     50 C          62.5899   92.9386    1.8419 C.3     1  UNL1        0.1107
@<TRIPOS>BOND
     1    42    43    1
     2    43    44    2
     3    43    45   am
     4    45    46    1
     5    46    47    1
     6    47    48    1
     7    48    41    1
     8    41    38    1
     9    38    39    1
    10    38    37    1
    11    37    31    1
    12    31    32    1
    13    32    33    1
    14    33    34    1
    15    34    30    1
    16    30    29    1
    17    29     1    1
    18     1     2    2
    19     2     9    1
    20     9    10   ar
    21    10    11   ar
    22    11    12    1
    23    11    13   ar
    24    13    14   ar
    25    14    15    1
    26    14    16   ar
    27     2     3    1
    28     3     4    2
    29     4     5    1
    30     5     6    1
    31     6    17    1
    32    17    18    1
    33    17    19    1
    34    17    20    1
    35    20    21    2
    36    20    22   am
    37    22    23    1
    38    23    24    1
    39    24    25    1
    40    25    26    1
    41    26    27    1
    42    27    28    1
    43     6     7    2
    44     7     8    1
    45    34    35    1
    46    35    36    1
    47    48    49    1
    48    49    50    1
    49    50    45    1
    50    36    31    1
    51     8     1    1
    52    16     9   ar
    53     8     4    1
    54    26    22    1
    55    28    23    1
    56    39    40    1
@<TRIPOS>MOLECULE
*****
 50 56 0 0 0
SMALL
GASTEIGER

@<TRIPOS>ATOM
      1 C          62.0282   86.8215   10.8626 C.2     1  UNL1       -0.0154
      2 C          62.0051   85.3280   10.7244 C.2     1  UNL1        0.0743
      3 N          61.2065   84.9881    9.5009 N.2     1  UNL1       -0.2432
      4 C          60.7361   86.2715    8.8830 C.2     1  UNL1        0.0953
      5 S          59.9518   86.8545    7.7450 S.3     1  UNL1       -0.0759
      6 C          59.9750   88.3479    7.8833 C.2     1  UNL1        0.0124
      7 C          60.7735   88.6879    9.1067 C.2     1  UNL1       -0.0132
      8 C          61.2439   87.4045    9.7246 C.3     1  UNL1        0.0883
      9 C          62.6647   84.3468   11.6474 C.ar    1  UNL1        0.0164
     10 C          62.3804   82.8803   11.5106 C.ar    1  UNL1       -0.0028
     11 C          63.0399   81.8992   12.4336 C.ar    1  UNL1       -0.0221
     12 C          62.7556   80.4327   12.2968 C.3     1  UNL1        0.0310
     13 C          63.9839   82.3844   13.4937 C.ar    1  UNL1       -0.0085
     14 C          64.2682   83.8508   13.6306 C.ar    1  UNL1       -0.0221
     15 C          65.2122   84.3360   14.6905 C.3     1  UNL1        0.0310
     16 C          63.6086   84.8320   12.7074 C.ar    1  UNL1       -0.0028
     17 C          59.3154   89.3291    6.9602 C.3     1  UNL1        0.0931
     18 C          58.8533   88.1989    6.0889 C.3     1  UNL1        0.0140
     19 C          59.7774   90.4594    7.8315 C.3     1  UNL1        0.0140
     20 C          58.6558   90.3104    6.0371 C.2     1  UNL1        0.2289
     21 O          57.1712   90.5156    6.0974 O.2     1  UNL1       -0.2745
     22 N          59.4809   91.0865    5.0537 N.am    1  UNL1       -0.2825
     23 C          60.9674   90.9884    4.8787 C.3     1  UNL1        0.0754
     24 C          61.3695   91.9381    3.7896 C.3     1  UNL1        0.0215
     25 C          60.1316   92.6231    3.2914 C.3     1  UNL1        0.0215
     26 C          58.9643   92.0968    4.0727 C.3     1  UNL1        0.0754
     27 C          58.5621   91.1470    5.1619 C.3     1  UNL1        0.0215
     28 C          59.8001   90.4620    5.6600 C.3     1  UNL1        0.0215
     29 C          62.7150   87.5959   11.9482 C.3     1  UNL1        0.0416
     30 C          62.2104   88.9548   12.3344 C.3     1  UNL1        0.0766
     31 N          64.8292   91.7345   14.7145 N.3     1  UNL1       -0.2682
     32 C          64.5962   91.9897   13.2548 C.3     1  UNL1        0.0897
     33 C          63.7233   91.0632   12.4614 C.3     1  UNL1        0.0897
     34 N          63.0833   89.8814   13.1277 N.3     1  UNL1       -0.2700
     35 C          63.3163   89.6262   14.5874 C.3     1  UNL1        0.0897
     36 C          64.1892   90.5528   15.3808 C.3     1  UNL1        0.0897
     37 C          65.7021   92.6611   15.5079 C.3     1  UNL1        0.1032
     38 C          67.1204   92.9023   15.0836 C.3     1  UNL1        0.1423
     39 O          68.0597   93.6396   15.9914 O.3     1  UNL1       -0.3816
     40 H          67.5943   93.8882   16.8053 H       1  UNL1        0.2105
     41 C          67.5995   92.4063   13.7515 C.3     1  UNL1        0.1032
     42 C          65.6847   96.8542    8.8730 C.3     1  UNL1        0.0948
     43 C          66.4362   95.5593    8.7810 C.2     1  UNL1        0.2262
     44 O          66.8968   95.0526    7.4464 O.2     1  UNL1       -0.2749
     45 N          66.7270   94.7710   10.0236 N.am    1  UNL1       -0.2767
     46 C          66.2664   95.2777   11.3582 C.3     1  UNL1        0.1107
     47 C          66.5572   94.4895   12.6008 C.3     1  UNL1        0.0940
     48 N          67.3087   93.1945   12.5089 N.3     1  UNL1       -0.2677
     49 C          67.7693   92.6878   11.1743 C.3     1  UNL1        0.0940
     50 C          67.4785   93.4761    9.9317 C.3     1  UNL1        0.1107
@<TRIPOS>BOND
     1    42    43    1
     2    43    44    2
     3    43    45   am
     4    45    46    1
     5    46    47    1
     6    47    48    1
     7    48    41    1
     8    41    38    1
     9    38    39    1
    10    38    37    1
    11    37    31    1
    12    31    32    1
    13    32    33    1
    14    33    34    1
    15    34    30    1
    16    30    29    1
    17    29     1    1
    18     1     2    2
    19     2     9    1
    20     9    10   ar
    21    10    11   ar
    22    11    12    1
    23    11    13   ar
    24    13    14   ar
    25    14    15    1
    26    14    16   ar
    27     2     3    1
    28     3     4    2
    29     4     5    1
    30     5     6    1
    31     6    17    1
    32    17    18    1
    33    17    19    1
    34    17    20    1
    35    20    21    2
    36    20    22   am
    37    22    23    1
    38    23    24    1
    39    24    25    1
    40    25    26    1
    41    26    27    1
    42    27    28    1
    43     6     7    2
    44     7     8    1
    45    34    35    1
    46    35    36    1
    47    48    49    1
    48    49    50    1
    49    50    45    1
    50    36    31    1
    51     8     1    1
    52    16     9   ar
    53     8     4    1
    54    26    22    1
    55    28    23    1
    56    39    40    1
@<TRIPOS>MOLECULE
*****
 50 56 0 0 0
SMALL
GASTEIGER

@<TRIPOS>ATOM
      1 C          62.0902   86.9118   10.8521 C.2     1  UNL1       -0.0154
      2 C          62.0091   85.4157   10.7783 C.2     1  UNL1        0.0743
      3 N          61.1464   85.0556    9.6052 N.2     1  UNL1       -0.2432
      4 C          60.6943   86.3291    8.9540 C.2     1  UNL1        0.0953
      5 S          59.8817   86.8935    7.8266 S.3     1  UNL1       -0.0759
      6 C          59.9629   88.3895    7.9005 C.2     1  UNL1        0.0124
      7 C          60.8256   88.7496    9.0735 C.2     1  UNL1       -0.0132
      8 C          61.2776   87.4762    9.7247 C.3     1  UNL1        0.0883
      9 C          62.6739   84.4495   11.7133 C.ar    1  UNL1        0.0164
     10 C          63.5824   84.9562   12.7941 C.ar    1  UNL1       -0.0028
     11 C          64.2472   83.9900   13.7292 C.ar    1  UNL1       -0.0221
     12 C          65.1557   84.4966   14.8100 C.3     1  UNL1        0.0310
     13 C          64.0037   82.5170   13.5835 C.ar    1  UNL1       -0.0085
     14 C          63.0952   82.0103   12.5027 C.ar    1  UNL1       -0.0221
     15 C          62.8517   80.5374   12.3570 C.3     1  UNL1        0.0310
     16 C          62.4304   82.9766   11.5676 C.ar    1  UNL1       -0.0028
     17 C          59.2980   89.3557    6.9654 C.3     1  UNL1        0.0931
     18 C          59.5152   90.4623    7.9545 C.3     1  UNL1        0.0140
     19 C          59.0808   88.2491    5.9763 C.3     1  UNL1        0.0140
     20 C          58.6331   90.3220    6.0304 C.2     1  UNL1        0.2289
     21 O          57.1447   90.5027    6.0722 O.2     1  UNL1       -0.2745
     22 N          59.4568   91.1077    5.0534 N.am    1  UNL1       -0.2825
     23 C          60.9468   91.0337    4.8964 C.3     1  UNL1        0.0754
     24 C          61.3459   91.9855    3.8079 C.3     1  UNL1        0.0215
     25 C          60.1028   92.6477    3.2922 C.3     1  UNL1        0.0215
     26 C          58.9352   92.1051    4.0620 C.3     1  UNL1        0.0754
     27 C          58.5360   91.1533    5.1505 C.3     1  UNL1        0.0215
     28 C          59.7792   90.4912    5.6661 C.3     1  UNL1        0.0215
     29 C          62.8504   87.7042   11.8740 C.3     1  UNL1        0.0416
     30 C          62.2504   88.9501   12.4551 C.3     1  UNL1        0.0766
     31 N          64.6232   91.4535   15.3453 N.3     1  UNL1       -0.2682
     32 C          63.7083   90.3808   15.8577 C.3     1  UNL1        0.0897
     33 C          62.9174   89.5464   14.8943 C.3     1  UNL1        0.0897
     34 N          63.0413   89.7846   13.4185 N.3     1  UNL1       -0.2700
     35 C          63.9562   90.8571   12.9062 C.3     1  UNL1        0.0897
     36 C          64.7471   91.6916   13.8696 C.3     1  UNL1        0.0897
     37 C          65.4141   92.2879   16.3087 C.3     1  UNL1        0.1032
     38 C          66.7709   92.7969   15.9216 C.3     1  UNL1        0.1423
     39 O          68.0031   92.1235   16.4491 O.3     1  UNL1       -0.3816
     40 H          67.7472   91.3830   17.0209 H       1  UNL1        0.2105
     41 C          66.8956   93.9794   15.0071 C.3     1  UNL1        0.1032
     42 C          68.5924   91.9760    8.6544 C.3     1  UNL1        0.0948
     43 C          67.7866   93.1475    9.1322 C.2     1  UNL1        0.2262
     44 O          67.2036   94.1110    8.1414 O.2     1  UNL1       -0.2749
     45 N          67.5638   93.3555   10.6010 N.am    1  UNL1       -0.2767
     46 C          68.1468   92.3919   11.5918 C.3     1  UNL1        0.1107
     47 C          67.9241   92.5999   13.0605 C.3     1  UNL1        0.0940
     48 N          67.1183   93.7714   13.5384 N.3     1  UNL1       -0.2677
     49 C          66.5353   94.7349   12.5476 C.3     1  UNL1        0.0940
     50 C          66.7581   94.5269   11.0788 C.3     1  UNL1        0.1107
@<TRIPOS>BOND
     1    42    43    1
     2    43    44    2
     3    43    45   am
     4    45    46    1
     5    46    47    1
     6    47    48    1
     7    48    41    1
     8    41    38    1
     9    38    39    1
    10    38    37    1
    11    37    31    1
    12    31    32    1
    13    32    33    1
    14    33    34    1
    15    34    30    1
    16    30    29    1
    17    29     1    1
    18     1     2    2
    19     2     9    1
    20     9    10   ar
    21    10    11   ar
    22    11    12    1
    23    11    13   ar
    24    13    14   ar
    25    14    15    1
    26    14    16   ar
    27     2     3    1
    28     3     4    2
    29     4     5    1
    30     5     6    1
    31     6    17    1
    32    17    18    1
    33    17    19    1
    34    17    20    1
    35    20    21    2
    36    20    22   am
    37    22    23    1
    38    23    24    1
    39    24    25    1
    40    25    26    1
    41    26    27    1
    42    27    28    1
    43     6     7    2
    44     7     8    1
    45    34    35    1
    46    35    36    1
    47    48    49    1
    48    49    50    1
    49    50    45    1
    50    36    31    1
    51     8     1    1
    52    16     9   ar
    53     8     4    1
    54    26    22    1
    55    28    23    1
    56    39    40    1
@<TRIPOS>MOLECULE
*****
 50 56 0 0 0
SMALL
GASTEIGER

@<TRIPOS>ATOM
      1 C          63.2771   87.5102   12.6855 C.2     1  UNL1       -0.0154
      2 C          64.1745   88.2429   13.6384 C.2     1  UNL1        0.0743
      3 N          64.6610   87.2623   14.6640 N.2     1  UNL1       -0.2432
      4 C          64.0643   85.9235   14.3449 C.2     1  UNL1        0.0953
      5 S          63.9962   84.4901   14.7816 S.3     1  UNL1       -0.0759
      6 C          63.0989   83.7575   13.8288 C.2     1  UNL1        0.0124
      7 C          62.6124   84.7381   12.8032 C.2     1  UNL1       -0.0132
      8 C          63.2090   86.0768   13.1222 C.3     1  UNL1        0.0883
      9 C          64.5240   89.7003   13.5766 C.ar    1  UNL1        0.0164
     10 C          65.0155   90.4065   14.8053 C.ar    1  UNL1       -0.0028
     11 C          65.3650   91.8639   14.7435 C.ar    1  UNL1       -0.0221
     12 C          65.8564   92.5701   15.9722 C.3     1  UNL1        0.0310
     13 C          65.2230   92.6151   13.4529 C.ar    1  UNL1       -0.0085
     14 C          64.7316   91.9089   12.2241 C.ar    1  UNL1       -0.0221
     15 C          64.5897   92.6601   10.9336 C.3     1  UNL1        0.0310
     16 C          64.3821   90.4515   12.2860 C.ar    1  UNL1       -0.0028
     17 C          62.7493   82.3001   13.8906 C.3     1  UNL1        0.0931
     18 C          62.7628   82.2333   12.3921 C.3     1  UNL1        0.0140
     19 C          62.7359   82.3669   15.3890 C.3     1  UNL1        0.0140
     20 C          62.3998   80.8427   13.9524 C.2     1  UNL1        0.2289
     21 O          63.4846   79.8082   13.8978 O.2     1  UNL1       -0.2745
     22 N          60.9653   80.4197   14.0688 N.am    1  UNL1       -0.2825
     23 C          59.7787   81.3350   14.1338 C.3     1  UNL1        0.0754
     24 C          58.5457   80.4882   14.2458 C.3     1  UNL1        0.0215
     25 C          58.9702   79.0495   14.2500 C.3     1  UNL1        0.0215
     26 C          60.4656   79.0072   14.1406 C.3     1  UNL1        0.0754
     27 C          61.6987   79.8540   14.0286 C.3     1  UNL1        0.0215
     28 C          61.2742   81.2927   14.0244 C.3     1  UNL1        0.0215
     29 C          62.5717   88.1063   11.5035 C.3     1  UNL1        0.0416
     30 C          61.6478   87.2615   10.6771 C.3     1  UNL1        0.0766
     31 N          59.4141   89.0877    7.2238 N.3     1  UNL1       -0.2682
     32 C          59.9646   89.9650    8.3090 C.3     1  UNL1        0.0897
     33 C          60.7092   89.3563    9.4601 C.3     1  UNL1        0.0897
     34 N          60.9032   87.8703    9.5260 N.3     1  UNL1       -0.2700
     35 C          60.3527   86.9931    8.4409 C.3     1  UNL1        0.0897
     36 C          59.6081   87.6018    7.2898 C.3     1  UNL1        0.0897
     37 C          58.6695   89.6965    6.0727 C.3     1  UNL1        0.1032
     38 C          59.1707   90.9606    5.4397 C.3     1  UNL1        0.1423
     39 O          58.2228   92.0916    5.1709 O.3     1  UNL1       -0.3816
     40 H          57.3320   91.8436    5.4640 H       1  UNL1        0.2105
     41 C          60.6197   91.0937    5.0755 C.3     1  UNL1        0.1032
     42 C          61.2657   95.1396   -0.4439 C.3     1  UNL1        0.0948
     43 C          62.2091   94.1400    0.1568 C.2     1  UNL1        0.2262
     44 O          63.5499   93.9020   -0.4723 O.2     1  UNL1       -0.2749
     45 N          61.8117   93.3784    1.3865 N.am    1  UNL1       -0.2767
     46 C          60.4710   93.6164    2.0155 C.3     1  UNL1        0.1107
     47 C          60.0736   92.8549    3.2452 C.3     1  UNL1        0.0940
     48 N          61.0170   91.8552    3.8459 N.3     1  UNL1       -0.2677
     49 C          62.3578   91.6172    3.2168 C.3     1  UNL1        0.0940
     50 C          62.7551   92.3788    1.9871 C.3     1  UNL1        0.1107
@<TRIPOS>BOND
     1    42    43    1
     2    43    44    2
     3    43    45   am
     4    45    46    1
     5    46    47    1
     6    47    48    1
     7    48    41    1
     8    41    38    1
     9    38    39    1
    10    38    37    1
    11    37    31    1
    12    31    32    1
    13    32    33    1
    14    33    34    1
    15    34    30    1
    16    30    29    1
    17    29     1    1
    18     1     2    2
    19     2     9    1
    20     9    10   ar
    21    10    11   ar
    22    11    12    1
    23    11    13   ar
    24    13    14   ar
    25    14    15    1
    26    14    16   ar
    27     2     3    1
    28     3     4    2
    29     4     5    1
    30     5     6    1
    31     6    17    1
    32    17    18    1
    33    17    19    1
    34    17    20    1
    35    20    21    2
    36    20    22   am
    37    22    23    1
    38    23    24    1
    39    24    25    1
    40    25    26    1
    41    26    27    1
    42    27    28    1
    43     6     7    2
    44     7     8    1
    45    34    35    1
    46    35    36    1
    47    48    49    1
    48    49    50    1
    49    50    45    1
    50    36    31    1
    51     8     1    1
    52    16     9   ar
    53     8     4    1
    54    26    22    1
    55    28    23    1
    56    39    40    1
@<TRIPOS>MOLECULE
*****
 50 56 0 0 0
SMALL
GASTEIGER

@<TRIPOS>ATOM
      1 C          60.8149   91.5990    3.6288 C.2     1  UNL1       -0.0154
      2 C          59.5988   92.3163    3.1219 C.2     1  UNL1        0.0743
      3 N          58.4719   92.0485    4.0751 N.2     1  UNL1       -0.2432
      4 C          58.9914   91.1658    5.1709 C.2     1  UNL1        0.0953
      5 S          58.6160   90.4548    6.4372 S.3     1  UNL1       -0.0759
      6 C          59.8320   89.7376    6.9440 C.2     1  UNL1        0.0124
      7 C          60.9590   90.0053    5.9910 C.2     1  UNL1       -0.0132
      8 C          60.4395   90.8880    4.8951 C.3     1  UNL1        0.0883
      9 C          59.5230   93.1541    1.8801 C.ar    1  UNL1        0.0164
     10 C          59.9690   94.5860    1.9130 C.ar    1  UNL1       -0.0028
     11 C          59.8932   95.4238    0.6712 C.ar    1  UNL1       -0.0221
     12 C          60.3391   96.8557    0.7041 C.3     1  UNL1        0.0310
     13 C          59.3715   94.8299   -0.6037 C.ar    1  UNL1       -0.0085
     14 C          58.9256   93.3981   -0.6366 C.ar    1  UNL1       -0.0221
     15 C          58.4039   92.8042   -1.9114 C.3     1  UNL1        0.0310
     16 C          59.0014   92.5602    0.6053 C.ar    1  UNL1       -0.0028
     17 C          59.9078   88.8997    8.1859 C.3     1  UNL1        0.0931
     18 C          60.8035   89.9218    8.8208 C.3     1  UNL1        0.0140
     19 C          59.0122   87.8776    7.5510 C.3     1  UNL1        0.0140
     20 C          59.9837   88.0618    9.4278 C.2     1  UNL1        0.2289
     21 O          59.0381   88.3173   10.5637 O.2     1  UNL1       -0.2745
     22 N          61.0051   86.9684    9.5336 N.am    1  UNL1       -0.2825
     23 C          62.0118   86.5978    8.4851 C.3     1  UNL1        0.0754
     24 C          62.8280   85.4541    9.0100 C.3     1  UNL1        0.0215
     25 C          62.3259   85.1178   10.3829 C.3     1  UNL1        0.0215
     26 C          61.1993   86.0537   10.7065 C.3     1  UNL1        0.0754
     27 C          60.3830   87.1975   10.1816 C.3     1  UNL1        0.0215
     28 C          60.8851   87.5338    8.8087 C.3     1  UNL1        0.0215
     29 C          62.1686   91.5937    2.9827 C.3     1  UNL1        0.0416
     30 C          63.0044   92.8393    2.9826 C.3     1  UNL1        0.0766
     31 N          64.2892   94.6862   -0.9147 N.3     1  UNL1       -0.2682
     32 C          65.0098   95.0346    0.3540 C.3     1  UNL1        0.0897
     33 C          64.5815   94.4190    1.6530 C.3     1  UNL1        0.0897
     34 N          63.4327   93.4550    1.6835 N.3     1  UNL1       -0.2700
     35 C          62.7121   93.1066    0.4149 C.3     1  UNL1        0.0897
     36 C          63.1404   93.7222   -0.8842 C.3     1  UNL1        0.0897
     37 C          64.7174   95.3018   -2.2138 C.3     1  UNL1        0.1032
     38 C          64.3371   94.6541   -3.5121 C.3     1  UNL1        0.1423
     39 O          64.7489   93.2394   -3.7933 O.3     1  UNL1       -0.3816
     40 H          65.2503   92.8926   -3.0389 H       1  UNL1        0.2105
     41 C          63.5450   95.4210   -4.5292 C.3     1  UNL1        0.1032
     42 C          56.9771   96.8552   -3.0954 C.3     1  UNL1        0.0948
     43 C          57.5818   95.8264   -4.0041 C.2     1  UNL1        0.2262
     44 O          56.6956   94.8988   -4.7816 O.2     1  UNL1       -0.2749
     45 N          59.0726   95.7250   -4.1354 N.am    1  UNL1       -0.2767
     46 C          59.9588   96.6525   -3.3580 C.3     1  UNL1        0.1107
     47 C          61.4495   96.5512   -3.4892 C.3     1  UNL1        0.0940
     48 N          62.0543   95.5223   -4.3980 N.3     1  UNL1       -0.2677
     49 C          61.1681   94.5948   -5.1754 C.3     1  UNL1        0.0940
     50 C          59.6773   94.6961   -5.0441 C.3     1  UNL1        0.1107
@<TRIPOS>BOND
     1    42    43    1
     2    43    44    2
     3    43    45   am
     4    45    46    1
     5    46    47    1
     6    47    48    1
     7    48    41    1
     8    41    38    1
     9    38    39    1
    10    38    37    1
    11    37    31    1
    12    31    32    1
    13    32    33    1
    14    33    34    1
    15    34    30    1
    16    30    29    1
    17    29     1    1
    18     1     2    2
    19     2     9    1
    20     9    10   ar
    21    10    11   ar
    22    11    12    1
    23    11    13   ar
    24    13    14   ar
    25    14    15    1
    26    14    16   ar
    27     2     3    1
    28     3     4    2
    29     4     5    1
    30     5     6    1
    31     6    17    1
    32    17    18    1
    33    17    19    1
    34    17    20    1
    35    20    21    2
    36    20    22   am
    37    22    23    1
    38    23    24    1
    39    24    25    1
    40    25    26    1
    41    26    27    1
    42    27    28    1
    43     6     7    2
    44     7     8    1
    45    34    35    1
    46    35    36    1
    47    48    49    1
    48    49    50    1
    49    50    45    1
    50    36    31    1
    51     8     1    1
    52    16     9   ar
    53     8     4    1
    54    26    22    1
    55    28    23    1
    56    39    40    1
@<TRIPOS>MOLECULE
*****
 50 56 0 0 0
SMALL
GASTEIGER

@<TRIPOS>ATOM
      1 C          62.2414   88.8078   10.9794 C.2     1  UNL1       -0.0154
      2 C          61.6361   89.6160    9.8701 C.2     1  UNL1        0.0743
      3 N          62.0606   91.0432   10.0515 N.2     1  UNL1       -0.2432
      4 C          62.9283   91.1171   11.2729 C.2     1  UNL1        0.0953
      5 S          63.7269   92.0448   12.1398 S.3     1  UNL1       -0.0759
      6 C          64.3322   91.2366   13.2490 C.2     1  UNL1        0.0124
      7 C          63.9077   89.8094   13.0676 C.2     1  UNL1       -0.0132
      8 C          63.0400   89.7355   11.8463 C.3     1  UNL1        0.0883
      9 C          60.7601   89.0895    8.7722 C.ar    1  UNL1        0.0164
     10 C          60.5099   87.6152    8.6542 C.ar    1  UNL1       -0.0028
     11 C          59.6339   87.0886    7.5564 C.ar    1  UNL1       -0.0221
     12 C          59.3837   85.6143    7.4384 C.3     1  UNL1        0.0310
     13 C          59.0081   88.0364    6.5764 C.ar    1  UNL1       -0.0085
     14 C          59.2583   89.5107    6.6944 C.ar    1  UNL1       -0.0221
     15 C          58.6325   90.4583    5.7145 C.3     1  UNL1        0.0310
     16 C          60.1343   90.0372    7.7923 C.ar    1  UNL1       -0.0028
     17 C          65.2082   91.7632   14.3469 C.3     1  UNL1        0.0931
     18 C          64.6384   90.7451   15.2898 C.3     1  UNL1        0.0140
     19 C          65.7779   92.7812   13.4041 C.3     1  UNL1        0.0140
     20 C          66.0842   92.2897   15.4448 C.2     1  UNL1        0.2289
     21 O          65.4783   92.7126   16.7502 O.2     1  UNL1       -0.2745
     22 N          67.5662   92.3933   15.2373 N.am    1  UNL1       -0.2825
     23 C          68.3111   92.0108   13.9929 C.3     1  UNL1        0.0754
     24 C          69.7687   92.2787   14.2243 C.3     1  UNL1        0.0215
     25 C          69.9247   92.8268   15.6118 C.3     1  UNL1        0.0215
     26 C          68.5635   92.8977   16.2379 C.3     1  UNL1        0.0754
     27 C          67.1058   92.6297   16.0065 C.3     1  UNL1        0.0215
     28 C          66.9499   92.0816   14.6190 C.3     1  UNL1        0.0215
     29 C          62.0770   87.3312   11.1855 C.3     1  UNL1        0.0416
     30 C          62.7465   86.3647   10.2538 C.3     1  UNL1        0.0766
     31 N          62.9787   82.0004   11.3254 N.3     1  UNL1       -0.2682
     32 C          63.8309   82.5473   10.2187 C.3     1  UNL1        0.0897
     33 C          63.7535   84.0021    9.8615 C.3     1  UNL1        0.0897
     34 N          62.8239   84.9099   10.6110 N.3     1  UNL1       -0.2700
     35 C          61.9718   84.3630   11.7176 C.3     1  UNL1        0.0897
     36 C          62.0492   82.9082   12.0748 C.3     1  UNL1        0.0897
     37 C          63.0562   80.5456   11.6826 C.3     1  UNL1        0.1032
     38 C          62.8298   80.1081   13.0993 C.3     1  UNL1        0.1423
     39 O          61.7084   79.1660   13.4232 O.3     1  UNL1       -0.3816
     40 H          61.2314   78.9393   12.6097 H       1  UNL1        0.2105
     41 C          63.7248   80.6127   14.1922 C.3     1  UNL1        0.1032
     42 C          64.8235   87.3473   15.0212 C.3     1  UNL1        0.0948
     43 C          63.7626   86.4488   15.5844 C.2     1  UNL1        0.2262
     44 O          62.7111   87.0093   16.4955 O.2     1  UNL1       -0.2749
     45 N          63.7531   84.9897   15.2363 N.am    1  UNL1       -0.2767
     46 C          64.8046   84.4292   14.3252 C.3     1  UNL1        0.1107
     47 C          64.7952   82.9702   13.9771 C.3     1  UNL1        0.0940
     48 N          63.7342   82.0716   14.5402 N.3     1  UNL1       -0.2677
     49 C          62.6828   82.6322   15.4514 C.3     1  UNL1        0.0940
     50 C          62.6922   84.0913   15.7995 C.3     1  UNL1        0.1107
@<TRIPOS>BOND
     1    42    43    1
     2    43    44    2
     3    43    45   am
     4    45    46    1
     5    46    47    1
     6    47    48    1
     7    48    41    1
     8    41    38    1
     9    38    39    1
    10    38    37    1
    11    37    31    1
    12    31    32    1
    13    32    33    1
    14    33    34    1
    15    34    30    1
    16    30    29    1
    17    29     1    1
    18     1     2    2
    19     2     9    1
    20     9    10   ar
    21    10    11   ar
    22    11    12    1
    23    11    13   ar
    24    13    14   ar
    25    14    15    1
    26    14    16   ar
    27     2     3    1
    28     3     4    2
    29     4     5    1
    30     5     6    1
    31     6    17    1
    32    17    18    1
    33    17    19    1
    34    17    20    1
    35    20    21    2
    36    20    22   am
    37    22    23    1
    38    23    24    1
    39    24    25    1
    40    25    26    1
    41    26    27    1
    42    27    28    1
    43     6     7    2
    44     7     8    1
    45    34    35    1
    46    35    36    1
    47    48    49    1
    48    49    50    1
    49    50    45    1
    50    36    31    1
    51     8     1    1
    52    16     9   ar
    53     8     4    1
    54    26    22    1
    55    28    23    1
    56    39    40    1
