@<TRIPOS>MOLECULE
*****
 31 35 0 0 0
SMALL
GASTEIGER

@<TRIPOS>ATOM
      1 O          61.3394   95.0964   -1.3945 O.2     1  UNL1       -0.2526
      2 C          62.1847   94.2869   -0.4563 C.2     1  UNL1        0.3039
      3 N          63.6586   94.1530   -0.7006 N.am    1  UNL1       -0.2901
      4 N          61.5561   93.6112    0.7261 N.am    1  UNL1       -0.2642
      5 C          60.0822   93.7450    0.9705 C.3     1  UNL1        0.0954
      6 C          59.4535   93.0693    2.1529 C.3     1  UNL1        0.0309
      7 C          60.2988   92.2598    3.0911 C.3     1  UNL1        0.0827
      8 C          61.7727   92.1259    2.8468 C.3     1  UNL1        0.0309
      9 C          62.4014   92.8017    1.6643 C.3     1  UNL1        0.0954
     10 H          64.2134   93.6217   -0.0849 H       1  UNL1        0.1509
     11 C          64.2872   94.8288   -1.8831 C.3     1  UNL1        0.0777
     12 C          64.9944   96.1401   -1.7092 C.3     1  UNL1        0.0246
     13 C          65.6230   96.8159   -2.8916 C.3     1  UNL1        0.0277
     14 C          65.5444   96.1803   -4.2481 C.ar    1  UNL1       -0.0260
     15 C          66.1730   96.8560   -5.4305 C.ar    1  UNL1       -0.0046
     16 C          66.0944   96.2204   -6.7869 C.ar    1  UNL1       -0.0003
     17 C          65.3872   94.9091   -6.9608 C.ar    1  UNL1       -0.0003
     18 C          64.7586   94.2333   -5.7784 C.ar    1  UNL1       -0.0045
     19 C          64.8372   94.8689   -4.4220 C.ar    1  UNL1       -0.0245
     20 C          64.2086   94.1932   -3.2395 C.3     1  UNL1        0.0456
     21 C          59.6702   91.5841    4.2736 C.ar    1  UNL1        0.2362
     22 N          60.3314   90.5784    5.1688 N.ar    1  UNL1       -0.1895
     23 C          59.3398   90.1682    6.2169 C.ar    1  UNL1        0.2210
     24 N          58.0658   90.9204    5.9695 N.ar    1  UNL1       -0.0544
     25 O          58.2700   91.7954    4.7684 O.2     1  UNL1       -0.3370
     26 C          59.5801   89.1794    7.3190 C.ar    1  UNL1        0.1203
     27 C          59.2581   87.7295    7.1092 C.ar    1  UNL1        0.0224
     28 C          59.4983   86.7407    8.2113 C.ar    1  UNL1        0.0032
     29 C          60.0606   87.2019    9.5233 C.ar    1  UNL1        0.0207
     30 C          60.3827   88.6518    9.7331 C.ar    1  UNL1        0.0989
     31 N          60.1424   89.6406    8.6310 N.ar    1  UNL1       -0.2406
@<TRIPOS>BOND
     1     1     2    2
     2     2     3   am
     3     3    11    1
     4    11    12    1
     5    12    13    1
     6    13    14    1
     7    14    15   ar
     8    15    16   ar
     9    16    17   ar
    10    17    18   ar
    11    18    19   ar
    12    19    20    1
    13     2     4   am
    14     4     5    1
    15     5     6    1
    16     6     7    1
    17     7    21    1
    18    21    22   ar
    19    22    23   ar
    20    23    26    1
    21    26    27   ar
    22    27    28   ar
    23    28    29   ar
    24    29    30   ar
    25    30    31   ar
    26    23    24   ar
    27    24    25   ar
    28     7     8    1
    29     8     9    1
    30    20    11    1
    31     9     4    1
    32    19    14   ar
    33    25    21   ar
    34    31    26   ar
    35     3    10    1
@<TRIPOS>MOLECULE
*****
 31 35 0 0 0
SMALL
GASTEIGER

@<TRIPOS>ATOM
      1 O          72.6838   75.4561   16.0350 O.2     1  UNL1       -0.2526
      2 C          71.9119   75.3917   14.7504 C.2     1  UNL1        0.3039
      3 N          71.0672   74.1910   14.4424 N.am    1  UNL1       -0.2901
      4 N          71.9848   76.5279   13.7738 N.am    1  UNL1       -0.2642
      5 C          72.8296   77.7285   14.0818 C.3     1  UNL1        0.0954
      6 C          72.9025   78.8647   13.1053 C.3     1  UNL1        0.0309
      7 C          72.1306   78.8003   11.8207 C.3     1  UNL1        0.0827
      8 C          71.2859   77.5997   11.5127 C.3     1  UNL1        0.0309
      9 C          71.2130   76.4634   12.4893 C.3     1  UNL1        0.0954
     10 H          70.5606   74.1487   13.5993 H       1  UNL1        0.1509
     11 C          70.9943   73.0548   15.4190 C.3     1  UNL1        0.0777
     12 C          70.4341   73.2807   16.7920 C.3     1  UNL1        0.0246
     13 C          70.3612   72.1446   17.7686 C.3     1  UNL1        0.0277
     14 C          70.8485   70.7824   17.3722 C.ar    1  UNL1       -0.0260
     15 C          70.7756   69.6462   18.3488 C.ar    1  UNL1       -0.0046
     16 C          71.2629   68.2841   17.9524 C.ar    1  UNL1       -0.0003
     17 C          71.8231   68.0582   16.5794 C.ar    1  UNL1       -0.0003
     18 C          71.8960   69.1943   15.6028 C.ar    1  UNL1       -0.0045
     19 C          71.4087   70.5564   15.9992 C.ar    1  UNL1       -0.0245
     20 C          71.4816   71.6927   15.0226 C.3     1  UNL1        0.0456
     21 C          72.2035   79.9365   10.8441 C.ar    1  UNL1        0.2362
     22 N          72.3801   79.8133    9.3597 N.ar    1  UNL1       -0.1895
     23 C          72.3984   81.1960    8.7787 C.ar    1  UNL1        0.2210
     24 N          72.2331   82.1740    9.9041 N.ar    1  UNL1       -0.0544
     25 O          72.1127   81.3955   11.1806 O.2     1  UNL1       -0.3370
     26 C          72.5545   81.5405    7.3271 C.ar    1  UNL1        0.1203
     27 C          73.4729   80.7323    6.4591 C.ar    1  UNL1        0.0224
     28 C          73.6291   81.0767    5.0075 C.ar    1  UNL1        0.0032
     29 C          72.8668   82.2294    4.4240 C.ar    1  UNL1        0.0207
     30 C          71.9484   83.0375    5.2920 C.ar    1  UNL1        0.0989
     31 N          71.7923   82.6931    6.7436 N.ar    1  UNL1       -0.2406
@<TRIPOS>BOND
     1     1     2    2
     2     2     3   am
     3     3    11    1
     4    11    12    1
     5    12    13    1
     6    13    14    1
     7    14    15   ar
     8    15    16   ar
     9    16    17   ar
    10    17    18   ar
    11    18    19   ar
    12    19    20    1
    13     2     4   am
    14     4     5    1
    15     5     6    1
    16     6     7    1
    17     7    21    1
    18    21    22   ar
    19    22    23   ar
    20    23    26    1
    21    26    27   ar
    22    27    28   ar
    23    28    29   ar
    24    29    30   ar
    25    30    31   ar
    26    23    24   ar
    27    24    25   ar
    28     7     8    1
    29     8     9    1
    30    20    11    1
    31     9     4    1
    32    19    14   ar
    33    25    21   ar
    34    31    26   ar
    35     3    10    1
@<TRIPOS>MOLECULE
*****
 31 35 0 0 0
SMALL
GASTEIGER

@<TRIPOS>ATOM
      1 O          60.9698   85.2082    9.7440 O.2     1  UNL1       -0.2526
      2 C          61.2642   86.6721    9.8872 C.2     1  UNL1        0.3039
      3 N          62.0889   87.1619   11.0404 N.am    1  UNL1       -0.2901
      4 N          60.7340   87.6460    8.8771 N.am    1  UNL1       -0.2642
      5 C          59.9093   87.1562    7.7239 C.3     1  UNL1        0.0954
      6 C          59.3791   88.1301    6.7138 C.3     1  UNL1        0.0309
      7 C          59.6736   89.5940    6.8570 C.3     1  UNL1        0.0827
      8 C          60.4982   90.0839    8.0102 C.3     1  UNL1        0.0309
      9 C          61.0285   89.1098    9.0203 C.3     1  UNL1        0.0954
     10 H          62.2821   88.1227   11.1344 H       1  UNL1        0.1509
     11 C          62.6191   86.1879   12.0505 C.3     1  UNL1        0.0777
     12 C          63.4446   86.6776   13.2032 C.3     1  UNL1        0.0246
     13 C          63.9749   85.7037   14.2132 C.3     1  UNL1        0.0277
     14 C          63.6795   84.2399   14.0707 C.ar    1  UNL1       -0.0260
     15 C          64.2097   83.2659   15.0807 C.ar    1  UNL1       -0.0046
     16 C          63.9144   81.8023   14.9381 C.ar    1  UNL1       -0.0003
     17 C          63.0888   81.3125   13.7855 C.ar    1  UNL1       -0.0003
     18 C          62.5586   82.2865   12.7754 C.ar    1  UNL1       -0.0045
     19 C          62.8539   83.7502   12.9180 C.ar    1  UNL1       -0.0245
     20 C          62.3237   84.7242   11.9079 C.3     1  UNL1        0.0456
     21 C          59.1434   90.5680    5.8469 C.ar    1  UNL1        0.2362
     22 N          59.9507   91.2866    4.8069 N.ar    1  UNL1       -0.1895
     23 C          59.0190   92.1571    4.0167 C.ar    1  UNL1        0.2210
     24 N          57.6359   91.9764    4.5685 N.ar    1  UNL1       -0.0544
     25 O          57.7128   90.9942    5.6996 O.2     1  UNL1       -0.3370
     26 C          59.4031   93.0513    2.8752 C.ar    1  UNL1        0.1203
     27 C          59.1406   92.6193    1.4630 C.ar    1  UNL1        0.0224
     28 C          59.5246   93.5134    0.3214 C.ar    1  UNL1        0.0032
     29 C          60.1711   94.8397    0.5923 C.ar    1  UNL1        0.0207
     30 C          60.4335   95.2716    2.0045 C.ar    1  UNL1        0.0989
     31 N          60.0495   94.3774    3.1460 N.ar    1  UNL1       -0.2406
@<TRIPOS>BOND
     1     1     2    2
     2     2     3   am
     3     3    11    1
     4    11    12    1
     5    12    13    1
     6    13    14    1
     7    14    15   ar
     8    15    16   ar
     9    16    17   ar
    10    17    18   ar
    11    18    19   ar
    12    19    20    1
    13     2     4   am
    14     4     5    1
    15     5     6    1
    16     6     7    1
    17     7    21    1
    18    21    22   ar
    19    22    23   ar
    20    23    26    1
    21    26    27   ar
    22    27    28   ar
    23    28    29   ar
    24    29    30   ar
    25    30    31   ar
    26    23    24   ar
    27    24    25   ar
    28     7     8    1
    29     8     9    1
    30    20    11    1
    31     9     4    1
    32    19    14   ar
    33    25    21   ar
    34    31    26   ar
    35     3    10    1
