@<TRIPOS>MOLECULE
*****
 29 31 0 0 0
SMALL
GASTEIGER

@<TRIPOS>ATOM
      1 O          62.5287   88.2738   12.3607 O.2     1  UNL1       -0.2698
      2 C          63.7412   88.6322   13.1678 C.2     1  UNL1        0.2495
      3 N          64.3507   87.6225   14.0945 N.am    1  UNL1       -0.2804
      4 H          65.1465   87.8578   14.6242 H       1  UNL1        0.1552
      5 C          63.7476   86.2542   14.2143 C.ar    1  UNL1        0.0514
      6 C          63.4965   85.6612   15.5689 C.ar    1  UNL1        0.0152
      7 C          62.8935   84.2931   15.6886 C.ar    1  UNL1        0.0085
      8 C          62.5416   83.5179   14.4536 C.ar    1  UNL1        0.0434
      9 C          62.7927   84.1109   13.0989 C.ar    1  UNL1        0.0648
     10 CL         62.4408   83.3357   11.8639 Cl      1  UNL1       -0.0817
     11 C          63.3957   85.4790   12.9792 C.ar    1  UNL1        0.0266
     12 S          61.9385   82.1496   14.5734 S.3     1  UNL1       -0.0136
     13 C          62.5102   81.0067   13.7880 C.3     1  UNL1        0.4477
     14 F          61.1236   80.5494   13.4442 F       1  UNL1       -0.1600
     15 F          63.8967   81.4640   14.1317 F       1  UNL1       -0.1600
     16 F          63.0818   79.8637   13.0026 F       1  UNL1       -0.1600
     17 C          64.3443   90.0005   13.0480 C.ar    1  UNL1        0.0537
     18 C          65.2828   90.5016   14.1053 C.ar    1  UNL1        0.0042
     19 C          65.8858   91.8698   13.9856 C.ar    1  UNL1       -0.0028
     20 C          65.5503   92.7369   12.8085 C.ar    1  UNL1       -0.0061
     21 C          64.6117   92.2358   11.7511 C.ar    1  UNL1       -0.0028
     22 C          64.0087   90.8676   11.8709 C.ar    1  UNL1        0.0042
     23 C          66.1533   94.1052   12.6887 C.3     1  UNL1        0.0991
     24 N          66.6203   94.6047   11.3537 N.3     1  UNL1       -0.2690
     25 C          67.2766   93.6630   10.3882 C.3     1  UNL1        0.0724
     26 C          67.7436   94.1626    9.0531 C.3     1  UNL1        0.0174
     27 C          67.5542   95.6040    8.6836 C.3     1  UNL1        0.0029
     28 C          66.8978   96.5458    9.6492 C.3     1  UNL1        0.0174
     29 C          66.4309   96.0461   10.9842 C.3     1  UNL1        0.0724
@<TRIPOS>BOND
     1     1     2    2
     2     2     3   am
     3     3     5    1
     4     5     6   ar
     5     6     7   ar
     6     7     8   ar
     7     8    12    1
     8    12    13    1
     9    13    14    1
    10    13    15    1
    11    13    16    1
    12     8     9   ar
    13     9    10    1
    14     9    11   ar
    15     2    17    1
    16    17    18   ar
    17    18    19   ar
    18    19    20   ar
    19    20    23    1
    20    23    24    1
    21    24    25    1
    22    25    26    1
    23    26    27    1
    24    27    28    1
    25    28    29    1
    26    20    21   ar
    27    21    22   ar
    28    11     5   ar
    29    22    17   ar
    30    29    24    1
    31     3     4    1
@<TRIPOS>MOLECULE
*****
 29 31 0 0 0
SMALL
GASTEIGER

@<TRIPOS>ATOM
      1 O          61.7822   86.9271   11.9330 O.2     1  UNL1       -0.2698
      2 C          63.0516   87.3588   12.6056 C.2     1  UNL1        0.2495
      3 N          63.8594   86.3676   13.3897 N.am    1  UNL1       -0.2804
      4 H          64.6926   86.6509   13.8311 H       1  UNL1        0.1552
      5 C          63.3979   84.9447   13.5013 C.ar    1  UNL1        0.0514
      6 C          62.9247   84.4110   14.8209 C.ar    1  UNL1        0.0152
      7 C          62.4632   82.9882   14.9324 C.ar    1  UNL1        0.0085
      8 C          62.4749   82.0990   13.7244 C.ar    1  UNL1        0.0434
      9 C          62.9481   82.6327   12.4049 C.ar    1  UNL1        0.0648
     10 CL         62.9597   81.7435   11.1969 Cl      1  UNL1       -0.0817
     11 C          63.4096   84.0555   12.2933 C.ar    1  UNL1        0.0266
     12 S          62.0133   80.6761   13.8360 S.3     1  UNL1       -0.0136
     13 C          60.5671   80.3749   14.0962 C.3     1  UNL1        0.4477
     14 F          60.3039   81.8342   14.3223 F       1  UNL1       -0.1600
     15 F          60.8303   78.9156   13.8701 F       1  UNL1       -0.1600
     16 F          59.1208   80.0738   14.3565 F       1  UNL1       -0.1600
     17 C          63.5131   88.7817   12.4940 C.ar    1  UNL1        0.0537
     18 C          63.1616   89.5912   11.2811 C.ar    1  UNL1        0.0042
     19 C          63.6231   91.0141   11.1696 C.ar    1  UNL1       -0.0028
     20 C          64.4362   91.6273   12.2708 C.ar    1  UNL1       -0.0061
     21 C          64.7878   90.8178   13.4837 C.ar    1  UNL1       -0.0028
     22 C          64.3262   89.3950   13.5952 C.ar    1  UNL1        0.0042
     23 C          64.8978   93.0502   12.1592 C.3     1  UNL1        0.0991
     24 N          65.9426   93.4228   11.1496 N.3     1  UNL1       -0.2690
     25 C          66.0219   94.8301   10.6367 C.3     1  UNL1        0.0724
     26 C          67.0668   95.2027    9.6271 C.3     1  UNL1        0.0174
     27 C          68.0325   94.1678    9.1303 C.3     1  UNL1        0.0029
     28 C          67.9531   92.7605    9.6432 C.3     1  UNL1        0.0174
     29 C          66.9082   92.3880   10.6529 C.3     1  UNL1        0.0724
@<TRIPOS>BOND
     1     1     2    2
     2     2     3   am
     3     3     5    1
     4     5     6   ar
     5     6     7   ar
     6     7     8   ar
     7     8    12    1
     8    12    13    1
     9    13    14    1
    10    13    15    1
    11    13    16    1
    12     8     9   ar
    13     9    10    1
    14     9    11   ar
    15     2    17    1
    16    17    18   ar
    17    18    19   ar
    18    19    20   ar
    19    20    23    1
    20    23    24    1
    21    24    25    1
    22    25    26    1
    23    26    27    1
    24    27    28    1
    25    28    29    1
    26    20    21   ar
    27    21    22   ar
    28    11     5   ar
    29    22    17   ar
    30    29    24    1
    31     3     4    1
@<TRIPOS>MOLECULE
*****
 29 31 0 0 0
SMALL
GASTEIGER

@<TRIPOS>ATOM
      1 O          62.0388   86.0119   11.7722 O.2     1  UNL1       -0.2698
      2 C          63.1619   86.2412   12.7398 C.2     1  UNL1        0.2495
      3 N          63.9300   85.0749   13.2874 N.am    1  UNL1       -0.2804
      4 H          64.6670   85.2254   13.9224 H       1  UNL1        0.1552
      5 C          63.5751   83.6793   12.8673 C.ar    1  UNL1        0.0514
      6 C          64.2576   83.0551   11.6864 C.ar    1  UNL1        0.0152
      7 C          63.9027   81.6595   11.2664 C.ar    1  UNL1        0.0085
      8 C          62.8653   80.8882   12.0273 C.ar    1  UNL1        0.0434
      9 C          62.1828   81.5125   13.2081 C.ar    1  UNL1        0.0648
     10 CL         61.1454   80.7412   13.9689 Cl      1  UNL1       -0.0817
     11 C          62.5377   82.9080   13.6281 C.ar    1  UNL1        0.0266
     12 S          62.5104   79.4926   11.6072 S.3     1  UNL1       -0.0136
     13 C          62.9264   78.9869   10.2577 C.3     1  UNL1        0.4477
     14 F          63.0953   77.6091   10.8261 F       1  UNL1       -0.1600
     15 F          62.7576   80.3647    9.6893 F       1  UNL1       -0.1600
     16 F          63.3425   78.4811    8.9082 F       1  UNL1       -0.1600
     17 C          63.5167   87.6368   13.1599 C.ar    1  UNL1        0.0537
     18 C          64.2577   87.8682   14.4434 C.ar    1  UNL1        0.0042
     19 C          64.6125   89.2637   14.8634 C.ar    1  UNL1       -0.0028
     20 C          64.2264   90.4279   13.9999 C.ar    1  UNL1       -0.0061
     21 C          63.4855   90.1965   12.7164 C.ar    1  UNL1       -0.0028
     22 C          63.1307   88.8010   12.2964 C.ar    1  UNL1        0.0042
     23 C          64.5813   91.8235   14.4200 C.3     1  UNL1        0.0991
     24 N          66.0079   92.1765   14.7202 N.3     1  UNL1       -0.2690
     25 C          66.3764   92.7310   16.0644 C.3     1  UNL1        0.0724
     26 C          67.8030   93.0840   16.3646 C.3     1  UNL1        0.0174
     27 C          68.8612   92.8825   15.3206 C.3     1  UNL1        0.0029
     28 C          68.4927   92.3279   13.9765 C.3     1  UNL1        0.0174
     29 C          67.0660   91.9749   13.6763 C.3     1  UNL1        0.0724
@<TRIPOS>BOND
     1     1     2    2
     2     2     3   am
     3     3     5    1
     4     5     6   ar
     5     6     7   ar
     6     7     8   ar
     7     8    12    1
     8    12    13    1
     9    13    14    1
    10    13    15    1
    11    13    16    1
    12     8     9   ar
    13     9    10    1
    14     9    11   ar
    15     2    17    1
    16    17    18   ar
    17    18    19   ar
    18    19    20   ar
    19    20    23    1
    20    23    24    1
    21    24    25    1
    22    25    26    1
    23    26    27    1
    24    27    28    1
    25    28    29    1
    26    20    21   ar
    27    21    22   ar
    28    11     5   ar
    29    22    17   ar
    30    29    24    1
    31     3     4    1
@<TRIPOS>MOLECULE
*****
 29 31 0 0 0
SMALL
GASTEIGER

@<TRIPOS>ATOM
      1 O          62.4546   88.7293   12.2112 O.2     1  UNL1       -0.2698
      2 C          63.7448   89.0693   12.8967 C.2     1  UNL1        0.2495
      3 N          64.4244   88.0513   13.7637 N.am    1  UNL1       -0.2804
      4 H          65.2712   88.2744   14.2135 H       1  UNL1        0.1552
      5 C          63.8138   86.6932   13.9453 C.ar    1  UNL1        0.0514
      6 C          63.3889   85.8957   12.7481 C.ar    1  UNL1        0.0152
      7 C          62.7784   84.5378   12.9297 C.ar    1  UNL1        0.0085
      8 C          62.5927   83.9773   14.3086 C.ar    1  UNL1        0.0434
      9 C          63.0176   84.7748   15.5059 C.ar    1  UNL1        0.0648
     10 CL         62.8319   84.2143   16.8848 Cl      1  UNL1       -0.0817
     11 C          63.6282   86.1327   15.3242 C.ar    1  UNL1        0.0266
     12 S          61.9821   82.6192   14.4903 S.3     1  UNL1       -0.0136
     13 C          62.5032   81.4516   13.7060 C.3     1  UNL1        0.4477
     14 F          63.9043   81.8090   14.1049 F       1  UNL1       -0.1600
     15 F          61.1021   81.0943   13.3071 F       1  UNL1       -0.1600
     16 F          63.0244   80.2840   12.9216 F       1  UNL1       -0.1600
     17 C          64.3554   90.4274   12.7150 C.ar    1  UNL1        0.0537
     18 C          64.0909   91.2070   11.4612 C.ar    1  UNL1        0.0042
     19 C          64.7015   92.5650   11.2796 C.ar    1  UNL1       -0.0028
     20 C          65.5766   93.1433   12.3519 C.ar    1  UNL1       -0.0061
     21 C          65.8412   92.3637   13.6057 C.ar    1  UNL1       -0.0028
     22 C          65.2306   91.0057   13.7873 C.ar    1  UNL1        0.0042
     23 C          66.1872   94.5014   12.1702 C.3     1  UNL1        0.0991
     24 N          66.2977   95.0966   10.7978 N.3     1  UNL1       -0.2690
     25 C          67.2955   94.5488    9.8209 C.3     1  UNL1        0.0724
     26 C          67.4060   95.1439    8.4485 C.3     1  UNL1        0.0174
     27 C          66.5188   96.2870    8.0530 C.3     1  UNL1        0.0029
     28 C          65.5210   96.8347    9.0299 C.3     1  UNL1        0.0174
     29 C          65.4105   96.2395   10.4024 C.3     1  UNL1        0.0724
@<TRIPOS>BOND
     1     1     2    2
     2     2     3   am
     3     3     5    1
     4     5     6   ar
     5     6     7   ar
     6     7     8   ar
     7     8    12    1
     8    12    13    1
     9    13    14    1
    10    13    15    1
    11    13    16    1
    12     8     9   ar
    13     9    10    1
    14     9    11   ar
    15     2    17    1
    16    17    18   ar
    17    18    19   ar
    18    19    20   ar
    19    20    23    1
    20    23    24    1
    21    24    25    1
    22    25    26    1
    23    26    27    1
    24    27    28    1
    25    28    29    1
    26    20    21   ar
    27    21    22   ar
    28    11     5   ar
    29    22    17   ar
    30    29    24    1
    31     3     4    1
@<TRIPOS>MOLECULE
*****
 29 31 0 0 0
SMALL
GASTEIGER

@<TRIPOS>ATOM
      1 O          63.4763   88.7460   12.8288 O.2     1  UNL1       -0.2698
      2 C          63.1322   89.8091   11.8280 C.2     1  UNL1        0.2495
      3 N          63.7652   91.1653   11.9270 N.am    1  UNL1       -0.2804
      4 H          63.5393   91.8631   11.2701 H       1  UNL1        0.1552
      5 C          64.7422   91.4586   13.0268 C.ar    1  UNL1        0.0514
      6 C          66.2013   91.6095   12.7132 C.ar    1  UNL1        0.0152
      7 C          67.1783   91.9028   13.8130 C.ar    1  UNL1        0.0085
      8 C          66.6962   92.0452   15.2262 C.ar    1  UNL1        0.0434
      9 C          65.2371   91.8943   15.5398 C.ar    1  UNL1        0.0648
     10 CL         64.7550   92.0367   16.9530 Cl      1  UNL1       -0.0817
     11 C          64.2601   91.6010   14.4400 C.ar    1  UNL1        0.0266
     12 S          67.6732   92.3384   16.3260 S.3     1  UNL1       -0.0136
     13 C          68.7715   93.3364   16.1071 C.3     1  UNL1        0.4477
     14 F          67.7748   94.3123   15.5556 F       1  UNL1       -0.1600
     15 F          69.7681   92.3604   16.6587 F       1  UNL1       -0.1600
     16 F          69.8698   94.3344   15.8882 F       1  UNL1       -0.1600
     17 C          62.1552   89.5158   10.7283 C.ar    1  UNL1        0.0537
     18 C          61.1076   90.5265   10.3664 C.ar    1  UNL1        0.0042
     19 C          60.1306   90.2332    9.2667 C.ar    1  UNL1       -0.0028
     20 C          60.2012   88.9292    8.5288 C.ar    1  UNL1       -0.0061
     21 C          61.2487   87.9184    8.8907 C.ar    1  UNL1       -0.0028
     22 C          62.2257   88.2117    9.9904 C.ar    1  UNL1        0.0042
     23 C          59.2241   88.6359    7.4291 C.3     1  UNL1        0.0991
     24 N          58.9029   89.6892    6.4106 N.3     1  UNL1       -0.2690
     25 C          57.4742   90.0483    6.1280 C.3     1  UNL1        0.0724
     26 C          57.1530   91.1016    5.1095 C.3     1  UNL1        0.0174
     27 C          58.2605   91.7958    4.3736 C.3     1  UNL1        0.0029
     28 C          59.6892   91.4367    4.6562 C.3     1  UNL1        0.0174
     29 C          60.0104   90.3834    5.6747 C.3     1  UNL1        0.0724
@<TRIPOS>BOND
     1     1     2    2
     2     2     3   am
     3     3     5    1
     4     5     6   ar
     5     6     7   ar
     6     7     8   ar
     7     8    12    1
     8    12    13    1
     9    13    14    1
    10    13    15    1
    11    13    16    1
    12     8     9   ar
    13     9    10    1
    14     9    11   ar
    15     2    17    1
    16    17    18   ar
    17    18    19   ar
    18    19    20   ar
    19    20    23    1
    20    23    24    1
    21    24    25    1
    22    25    26    1
    23    26    27    1
    24    27    28    1
    25    28    29    1
    26    20    21   ar
    27    21    22   ar
    28    11     5   ar
    29    22    17   ar
    30    29    24    1
    31     3     4    1
@<TRIPOS>MOLECULE
*****
 29 31 0 0 0
SMALL
GASTEIGER

@<TRIPOS>ATOM
      1 O          60.1230   94.4444    2.5513 O.2     1  UNL1       -0.2698
      2 C          60.6115   93.0300    2.6545 C.2     1  UNL1        0.2495
      3 N          61.6209   92.5116    1.6735 N.am    1  UNL1       -0.2804
      4 H          61.9415   91.5833    1.7413 H       1  UNL1        0.1552
      5 C          62.1418   93.4078    0.5892 C.ar    1  UNL1        0.0514
      6 C          61.3210   93.6499   -0.6426 C.ar    1  UNL1        0.0152
      7 C          61.8420   94.5460   -1.7268 C.ar    1  UNL1        0.0085
      8 C          63.1838   95.2001   -1.5791 C.ar    1  UNL1        0.0434
      9 C          64.0046   94.9580   -0.3472 C.ar    1  UNL1        0.0648
     10 CL         65.3464   95.6120   -0.1995 Cl      1  UNL1       -0.0817
     11 C          63.4836   94.0618    0.7369 C.ar    1  UNL1        0.0266
     12 S          63.7047   96.0962   -2.6634 S.3     1  UNL1       -0.0136
     13 C          64.5442   95.5267   -3.7684 C.3     1  UNL1        0.4477
     14 F          65.7597   96.1821   -3.1827 F       1  UNL1       -0.1600
     15 F          63.3287   94.8714   -4.3540 F       1  UNL1       -0.1600
     16 F          65.3837   94.9572   -4.8734 F       1  UNL1       -0.1600
     17 C          60.0905   92.1338    3.7388 C.ar    1  UNL1        0.0537
     18 C          58.6352   92.1627    4.1011 C.ar    1  UNL1        0.0042
     19 C          58.1143   91.2666    5.1853 C.ar    1  UNL1       -0.0028
     20 C          59.0487   90.3415    5.9072 C.ar    1  UNL1       -0.0061
     21 C          60.5040   90.3126    5.5449 C.ar    1  UNL1       -0.0028
     22 C          61.0249   91.2088    4.4607 C.ar    1  UNL1        0.0042
     23 C          58.5278   89.4454    6.9915 C.3     1  UNL1        0.0991
     24 N          59.4694   88.5516    7.7428 N.3     1  UNL1       -0.2690
     25 C          60.3508   89.1220    8.8141 C.3     1  UNL1        0.0724
     26 C          61.2924   88.2282    9.5654 C.3     1  UNL1        0.0174
     27 C          61.3526   86.7639    9.2453 C.3     1  UNL1        0.0029
     28 C          60.4713   86.1935    8.1740 C.3     1  UNL1        0.0174
     29 C          59.5296   87.0874    7.4227 C.3     1  UNL1        0.0724
@<TRIPOS>BOND
     1     1     2    2
     2     2     3   am
     3     3     5    1
     4     5     6   ar
     5     6     7   ar
     6     7     8   ar
     7     8    12    1
     8    12    13    1
     9    13    14    1
    10    13    15    1
    11    13    16    1
    12     8     9   ar
    13     9    10    1
    14     9    11   ar
    15     2    17    1
    16    17    18   ar
    17    18    19   ar
    18    19    20   ar
    19    20    23    1
    20    23    24    1
    21    24    25    1
    22    25    26    1
    23    26    27    1
    24    27    28    1
    25    28    29    1
    26    20    21   ar
    27    21    22   ar
    28    11     5   ar
    29    22    17   ar
    30    29    24    1
    31     3     4    1
@<TRIPOS>MOLECULE
*****
 29 31 0 0 0
SMALL
GASTEIGER

@<TRIPOS>ATOM
      1 O          60.1134   94.4900    2.6427 O.2     1  UNL1       -0.2698
      2 C          60.5469   93.0544    2.6756 C.2     1  UNL1        0.2495
      3 N          61.4819   92.5291    1.6269 N.am    1  UNL1       -0.2804
      4 H          61.7665   91.5869    1.6485 H       1  UNL1        0.1552
      5 C          61.9835   93.4394    0.5453 C.ar    1  UNL1        0.0514
      6 C          63.3775   93.9888    0.6139 C.ar    1  UNL1        0.0152
      7 C          63.8790   94.8990   -0.4677 C.ar    1  UNL1        0.0085
      8 C          62.9864   95.2600   -1.6179 C.ar    1  UNL1        0.0434
      9 C          61.5923   94.7106   -1.6865 C.ar    1  UNL1        0.0648
     10 CL         60.6997   95.0716   -2.8367 Cl      1  UNL1       -0.0817
     11 C          61.0909   93.8004   -0.6049 C.ar    1  UNL1        0.0266
     12 S          63.4879   96.1703   -2.6996 S.3     1  UNL1       -0.0136
     13 C          64.4732   95.6625   -3.7102 C.3     1  UNL1        0.4477
     14 F          63.3524   95.0443   -4.4922 F       1  UNL1       -0.1600
     15 F          65.5940   96.2807   -2.9281 F       1  UNL1       -0.1600
     16 F          65.4585   95.1547   -4.7209 F       1  UNL1       -0.1600
     17 C          60.0454   92.1441    3.7572 C.ar    1  UNL1        0.0537
     18 C          60.9998   91.2389    4.4781 C.ar    1  UNL1        0.0042
     19 C          60.4982   90.3286    5.5596 C.ar    1  UNL1       -0.0028
     20 C          59.0422   90.3236    5.9203 C.ar    1  UNL1       -0.0061
     21 C          58.0878   91.2288    5.1995 C.ar    1  UNL1       -0.0028
     22 C          58.5894   92.1390    4.1179 C.ar    1  UNL1        0.0042
     23 C          58.5407   89.4132    7.0020 C.3     1  UNL1        0.0991
     24 N          59.5004   88.5328    7.7461 N.3     1  UNL1       -0.2690
     25 C          59.5922   87.0733    7.4127 C.3     1  UNL1        0.0724
     26 C          60.5519   86.1929    8.1568 C.3     1  UNL1        0.0174
     27 C          61.4199   86.7720    9.2345 C.3     1  UNL1        0.0029
     28 C          61.3281   88.2316    9.5679 C.3     1  UNL1        0.0174
     29 C          60.3683   89.1120    8.8237 C.3     1  UNL1        0.0724
@<TRIPOS>BOND
     1     1     2    2
     2     2     3   am
     3     3     5    1
     4     5     6   ar
     5     6     7   ar
     6     7     8   ar
     7     8    12    1
     8    12    13    1
     9    13    14    1
    10    13    15    1
    11    13    16    1
    12     8     9   ar
    13     9    10    1
    14     9    11   ar
    15     2    17    1
    16    17    18   ar
    17    18    19   ar
    18    19    20   ar
    19    20    23    1
    20    23    24    1
    21    24    25    1
    22    25    26    1
    23    26    27    1
    24    27    28    1
    25    28    29    1
    26    20    21   ar
    27    21    22   ar
    28    11     5   ar
    29    22    17   ar
    30    29    24    1
    31     3     4    1
@<TRIPOS>MOLECULE
*****
 29 31 0 0 0
SMALL
GASTEIGER

@<TRIPOS>ATOM
      1 O          60.5092   86.8075   11.1727 O.2     1  UNL1       -0.2698
      2 C          61.0225   86.8217    9.7633 C.2     1  UNL1        0.2495
      3 N          62.0902   85.8552    9.3442 N.am    1  UNL1       -0.2804
      4 H          62.4271   85.8645    8.4192 H       1  UNL1        0.1552
      5 C          62.6447   84.8744   10.3345 C.ar    1  UNL1        0.0514
      6 C          63.5192   83.7492    9.8665 C.ar    1  UNL1        0.0152
      7 C          64.0736   82.7684   10.8568 C.ar    1  UNL1        0.0085
      8 C          63.7536   82.9129   12.3151 C.ar    1  UNL1        0.0434
      9 C          62.8791   84.0381   12.7831 C.ar    1  UNL1        0.0648
     10 CL         62.5591   84.1826   14.2415 Cl      1  UNL1       -0.0817
     11 C          62.3247   85.0189   11.7929 C.ar    1  UNL1        0.0266
     12 S          64.3081   81.9321   13.3054 S.3     1  UNL1       -0.0136
     13 C          63.5327   80.6955   13.6509 C.3     1  UNL1        0.4477
     14 F          62.3791   81.1893   12.8291 F       1  UNL1       -0.1600
     15 F          64.6862   80.2017   14.4726 F       1  UNL1       -0.1600
     16 F          62.7571   79.4588   13.9963 F       1  UNL1       -0.1600
     17 C          60.4680   87.8026    8.7730 C.ar    1  UNL1        0.0537
     18 C          60.6872   89.2732    8.9708 C.ar    1  UNL1        0.0042
     19 C          60.1327   90.2539    7.9805 C.ar    1  UNL1       -0.0028
     20 C          59.3590   89.7640    6.7925 C.ar    1  UNL1       -0.0061
     21 C          59.1398   88.2934    6.5947 C.ar    1  UNL1       -0.0028
     22 C          59.6943   87.3127    7.5850 C.ar    1  UNL1        0.0042
     23 C          58.8045   90.7448    5.8022 C.3     1  UNL1        0.0991
     24 N          59.7038   91.3585    4.7704 N.3     1  UNL1       -0.2690
     25 C          61.1355   90.9226    4.6686 C.3     1  UNL1        0.0724
     26 C          62.0348   91.5363    3.6368 C.3     1  UNL1        0.0174
     27 C          61.5024   92.5860    2.7068 C.3     1  UNL1        0.0029
     28 C          60.0708   93.0219    2.8086 C.3     1  UNL1        0.0174
     29 C          59.1715   92.4082    3.8405 C.3     1  UNL1        0.0724
@<TRIPOS>BOND
     1     1     2    2
     2     2     3   am
     3     3     5    1
     4     5     6   ar
     5     6     7   ar
     6     7     8   ar
     7     8    12    1
     8    12    13    1
     9    13    14    1
    10    13    15    1
    11    13    16    1
    12     8     9   ar
    13     9    10    1
    14     9    11   ar
    15     2    17    1
    16    17    18   ar
    17    18    19   ar
    18    19    20   ar
    19    20    23    1
    20    23    24    1
    21    24    25    1
    22    25    26    1
    23    26    27    1
    24    27    28    1
    25    28    29    1
    26    20    21   ar
    27    21    22   ar
    28    11     5   ar
    29    22    17   ar
    30    29    24    1
    31     3     4    1
@<TRIPOS>MOLECULE
*****
 29 31 0 0 0
SMALL
GASTEIGER

@<TRIPOS>ATOM
      1 O          61.6973   85.5061   11.3113 O.2     1  UNL1       -0.2698
      2 C          62.8636   85.8034   12.2065 C.2     1  UNL1        0.2495
      3 N          63.7209   84.6839   12.7180 N.am    1  UNL1       -0.2804
      4 H          64.4864   84.8790   13.3055 H       1  UNL1        0.1552
      5 C          63.4119   83.2670   12.3343 C.ar    1  UNL1        0.0514
      6 C          63.9826   82.6901   11.0728 C.ar    1  UNL1        0.0152
      7 C          63.6735   81.2733   10.6892 C.ar    1  UNL1        0.0085
      8 C          62.7938   80.4335   11.5671 C.ar    1  UNL1        0.0434
      9 C          62.2231   81.0104   12.8286 C.ar    1  UNL1        0.0648
     10 CL         61.3434   80.1705   13.7066 Cl      1  UNL1       -0.0817
     11 C          62.5322   82.4272   13.2122 C.ar    1  UNL1        0.0266
     12 S          62.4848   79.0166   11.1835 S.3     1  UNL1       -0.0136
     13 C          63.1839   78.3864   10.0156 C.3     1  UNL1        0.4477
     14 F          63.4255   77.1488   10.8280 F       1  UNL1       -0.1600
     15 F          62.9423   79.6239    9.2031 F       1  UNL1       -0.1600
     16 F          63.8830   77.7560    8.8477 F       1  UNL1       -0.1600
     17 C          63.1726   87.2202   12.5901 C.ar    1  UNL1        0.0537
     18 C          62.6659   88.3530   11.7475 C.ar    1  UNL1        0.0042
     19 C          62.9749   89.7697   12.1312 C.ar    1  UNL1       -0.0028
     20 C          63.7906   90.0538   13.3575 C.ar    1  UNL1       -0.0061
     21 C          64.2974   88.9210   14.2002 C.ar    1  UNL1       -0.0028
     22 C          63.9883   87.5043   13.8165 C.ar    1  UNL1        0.0042
     23 C          64.0997   91.4706   13.7411 C.3     1  UNL1        0.0991
     24 N          64.9187   92.3334   12.8276 N.3     1  UNL1       -0.2690
     25 C          64.6272   92.3562   11.3563 C.3     1  UNL1        0.0724
     26 C          65.4463   93.2190   10.4428 C.3     1  UNL1        0.0174
     27 C          66.5570   94.0590   11.0004 C.3     1  UNL1        0.0029
     28 C          66.8485   94.0362   12.4716 C.3     1  UNL1        0.0174
     29 C          66.0293   93.1734   13.3852 C.3     1  UNL1        0.0724
@<TRIPOS>BOND
     1     1     2    2
     2     2     3   am
     3     3     5    1
     4     5     6   ar
     5     6     7   ar
     6     7     8   ar
     7     8    12    1
     8    12    13    1
     9    13    14    1
    10    13    15    1
    11    13    16    1
    12     8     9   ar
    13     9    10    1
    14     9    11   ar
    15     2    17    1
    16    17    18   ar
    17    18    19   ar
    18    19    20   ar
    19    20    23    1
    20    23    24    1
    21    24    25    1
    22    25    26    1
    23    26    27    1
    24    27    28    1
    25    28    29    1
    26    20    21   ar
    27    21    22   ar
    28    11     5   ar
    29    22    17   ar
    30    29    24    1
    31     3     4    1
