@<TRIPOS>MOLECULE
*****
 31 33 0 0 0
SMALL
GASTEIGER

@<TRIPOS>ATOM
      1 C          65.3437   92.1324   12.4225 C.ar    1  UNL1       -0.0004
      2 C          65.0199   91.2057   13.5566 C.ar    1  UNL1       -0.0024
      3 C          63.9145   90.2020   13.4128 C.ar    1  UNL1       -0.0002
      4 C          63.1329   90.1251   12.1348 C.ar    1  UNL1        0.0030
      5 C          62.0275   89.1214   11.9910 C.ar    1  UNL1        0.0369
      6 C          61.2459   89.0444   10.7130 C.ar    1  UNL1        0.1386
      7 C          61.5698   89.9712    9.5788 C.ar    1  UNL1        0.0369
      8 C          62.6751   90.9749    9.7227 C.ar    1  UNL1        0.0031
      9 C          63.4567   91.0518   11.0007 C.ar    1  UNL1       -0.0001
     10 C          64.5621   92.0555   11.1445 C.ar    1  UNL1       -0.0024
     11 C          66.4491   93.1361   12.5663 C.3     1  UNL1        0.1240
     12 N          67.3496   93.0935   13.7652 N.ar    1  UNL1       -0.3045
     13 C          67.2270   93.9494   14.9909 C.ar    1  UNL1        0.0983
     14 C          68.3324   93.5723   15.9321 C.ar    1  UNL1        0.1193
     15 N          69.1382   92.4832   15.2882 N.ar    1  UNL1       -0.2223
     16 C          68.5307   92.1873   13.9490 C.ar    1  UNL1        0.1788
     17 C          66.6541   94.1824   11.5113 C.3     1  UNL1        0.0826
     18 C          66.0272   95.5364   11.6660 C.3     1  UNL1        0.0197
     19 N          67.4859   93.8749   10.3015 N.3     1  UNL1       -0.2720
     20 C          66.9332   95.2369    8.1592 C.3     1  UNL1        0.0188
     21 C          67.8297   94.9655    9.3307 C.3     1  UNL1        0.0722
     22 C          67.9738   92.4768   10.0625 C.3     1  UNL1        0.0722
     23 C          68.7610   92.1582    8.8261 C.3     1  UNL1        0.0188
     24 O          60.1405   88.0408   10.5692 O.3     1  UNL1       -0.4751
     25 C          60.4640   86.5813   10.4448 C.3     1  UNL1        0.2103
     26 C          61.0686   86.0524    9.1781 C.3     1  UNL1        0.0724
     27 C          62.2847   85.6167    9.9404 C.3     1  UNL1        0.0093
     28 C          59.8525   86.4881    8.4158 C.3     1  UNL1        0.0093
     29 C          61.6732   85.5235    7.9113 C.2     1  UNL1        0.0532
     30 O          60.7996   85.2361    6.7263 O.co2   1  UNL1       -0.5491
     31 O          63.1513   85.2819    7.8296 O.co2   1  UNL1       -0.5491
@<TRIPOS>UNITY_ATOM_ATTR
30 1
charge -1
@<TRIPOS>BOND
     1    20    21    1
     2    21    19    1
     3    19    22    1
     4    22    23    1
     5    19    17    1
     6    17    18    1
     7    17    11    1
     8    11     1    1
     9     1     2   ar
    10     2     3   ar
    11     3     4   ar
    12     4     5   ar
    13     5     6   ar
    14     6    24    1
    15    24    25    1
    16    25    26    1
    17    26    27    1
    18    26    28    1
    19    26    29    1
    20    29    30   ar
    21    29    31   ar
    22     6     7   ar
    23     7     8   ar
    24     8     9   ar
    25     9    10   ar
    26    11    12    1
    27    12    13   ar
    28    13    14   ar
    29    14    15   ar
    30    15    16   ar
    31    10     1   ar
    32    16    12   ar
    33     9     4   ar
@<TRIPOS>MOLECULE
*****
 31 33 0 0 0
SMALL
GASTEIGER

@<TRIPOS>ATOM
      1 C          63.5210   85.6094   12.8846 C.ar    1  UNL1       -0.0004
      2 C          64.2104   85.5516   14.2155 C.ar    1  UNL1       -0.0024
      3 C          64.5614   86.8206   14.9340 C.ar    1  UNL1       -0.0002
      4 C          64.2231   88.1474   14.3216 C.ar    1  UNL1        0.0030
      5 C          64.5742   89.4165   15.0402 C.ar    1  UNL1        0.0369
      6 C          64.2359   90.7433   14.4278 C.ar    1  UNL1        0.1386
      7 C          63.5465   90.8011   13.0969 C.ar    1  UNL1        0.0369
      8 C          63.1954   89.5321   12.3784 C.ar    1  UNL1        0.0031
      9 C          63.5337   88.2053   12.9907 C.ar    1  UNL1       -0.0001
     10 C          63.1826   86.9363   12.2722 C.ar    1  UNL1       -0.0024
     11 C          63.1698   84.3404   12.1660 C.3     1  UNL1        0.1240
     12 N          62.6649   83.1569   12.9370 N.ar    1  UNL1       -0.3045
     13 C          62.4107   81.7866   12.3826 C.ar    1  UNL1        0.0983
     14 C          61.9142   80.9188   13.5008 C.ar    1  UNL1        0.1193
     15 N          61.8616   81.7528   14.7465 N.ar    1  UNL1       -0.2223
     16 C          62.3256   83.1361   14.3980 C.ar    1  UNL1        0.1788
     17 C          63.3236   84.2548   10.6764 C.3     1  UNL1        0.0826
     18 C          64.2701   83.2578   10.0761 C.3     1  UNL1        0.0197
     19 N          62.5310   85.1662    9.7869 N.3     1  UNL1       -0.2720
     20 C          62.5046   84.8555    7.2076 C.3     1  UNL1        0.0188
     21 C          63.0543   85.5305    8.4291 C.3     1  UNL1        0.0722
     22 C          61.2152   85.7133   10.2552 C.3     1  UNL1        0.0722
     23 C          60.6222   86.9170    9.5850 C.3     1  UNL1        0.0188
     24 O          64.5870   92.0123   15.1464 O.3     1  UNL1       -0.4751
     25 C          66.0152   92.4662   15.2126 C.3     1  UNL1        0.2103
     26 C          66.8910   92.3661   13.9991 C.3     1  UNL1        0.0724
     27 C          67.7242   91.3252   14.6863 C.3     1  UNL1        0.0093
     28 C          66.0578   93.4069   13.3118 C.3     1  UNL1        0.0093
     29 C          67.7669   92.2659   12.7855 C.2     1  UNL1        0.0532
     30 O          67.2746   92.7705   11.4615 O.co2   1  UNL1       -0.5491
     31 O          69.1351   91.6612   12.8959 O.co2   1  UNL1       -0.5491
@<TRIPOS>UNITY_ATOM_ATTR
30 1
charge -1
@<TRIPOS>BOND
     1    20    21    1
     2    21    19    1
     3    19    22    1
     4    22    23    1
     5    19    17    1
     6    17    18    1
     7    17    11    1
     8    11     1    1
     9     1     2   ar
    10     2     3   ar
    11     3     4   ar
    12     4     5   ar
    13     5     6   ar
    14     6    24    1
    15    24    25    1
    16    25    26    1
    17    26    27    1
    18    26    28    1
    19    26    29    1
    20    29    30   ar
    21    29    31   ar
    22     6     7   ar
    23     7     8   ar
    24     8     9   ar
    25     9    10   ar
    26    11    12    1
    27    12    13   ar
    28    13    14   ar
    29    14    15   ar
    30    15    16   ar
    31    10     1   ar
    32    16    12   ar
    33     9     4   ar
@<TRIPOS>MOLECULE
*****
 31 33 0 0 0
SMALL
GASTEIGER

@<TRIPOS>ATOM
      1 C          62.4457   88.1140   10.4357 C.ar    1  UNL1       -0.0004
      2 C          62.4511   89.5376    9.9631 C.ar    1  UNL1       -0.0024
      3 C          62.9350   90.6279   10.8725 C.ar    1  UNL1       -0.0002
      4 C          63.4136   90.2946   12.2544 C.ar    1  UNL1        0.0030
      5 C          63.8975   91.3850   13.1638 C.ar    1  UNL1        0.0369
      6 C          64.3761   91.0517   14.5458 C.ar    1  UNL1        0.1386
      7 C          64.3707   89.6281   15.0184 C.ar    1  UNL1        0.0369
      8 C          63.8868   88.5378   14.1090 C.ar    1  UNL1        0.0031
      9 C          63.4082   88.8710   12.7270 C.ar    1  UNL1       -0.0001
     10 C          62.9243   87.7808   11.8176 C.ar    1  UNL1       -0.0024
     11 C          61.9618   87.0236    9.5263 C.3     1  UNL1        0.1240
     12 N          60.6984   87.2091    8.7392 N.ar    1  UNL1       -0.3045
     13 C          60.0505   88.5207    8.4078 C.ar    1  UNL1        0.0983
     14 C          58.8128   88.2377    7.6091 C.ar    1  UNL1        0.1193
     15 N          58.6956   86.7511    7.4469 N.ar    1  UNL1       -0.2223
     16 C          59.8610   86.1154    8.1453 C.ar    1  UNL1        0.1788
     17 C          62.7412   85.7479    9.4040 C.3     1  UNL1        0.0826
     18 C          63.2995   85.3346    8.0745 C.3     1  UNL1        0.0197
     19 N          62.9623   84.8855   10.6111 N.3     1  UNL1       -0.2720
     20 C          62.4553   84.4684   13.1249 C.3     1  UNL1        0.0188
     21 C          62.0276   84.9783   11.7806 C.3     1  UNL1        0.0722
     22 C          64.1182   83.9302   10.6488 C.3     1  UNL1        0.0722
     23 C          63.9022   82.4789   10.3375 C.3     1  UNL1        0.0188
     24 O          64.8600   92.1420   15.4552 O.3     1  UNL1       -0.4751
     25 C          66.2775   92.6236   15.3606 C.3     1  UNL1        0.2103
     26 C          67.0245   92.5067   14.0651 C.3     1  UNL1        0.0724
     27 C          67.6531   91.2313   14.5427 C.3     1  UNL1        0.0093
     28 C          66.3958   93.7821   13.5875 C.3     1  UNL1        0.0093
     29 C          67.7714   92.3897   12.7696 C.2     1  UNL1        0.0532
     30 O          69.0705   91.6415   12.7178 O.co2   1  UNL1       -0.5491
     31 O          67.2194   93.0210   11.5260 O.co2   1  UNL1       -0.5491
@<TRIPOS>UNITY_ATOM_ATTR
30 1
charge -1
@<TRIPOS>BOND
     1    20    21    1
     2    21    19    1
     3    19    22    1
     4    22    23    1
     5    19    17    1
     6    17    18    1
     7    17    11    1
     8    11     1    1
     9     1     2   ar
    10     2     3   ar
    11     3     4   ar
    12     4     5   ar
    13     5     6   ar
    14     6    24    1
    15    24    25    1
    16    25    26    1
    17    26    27    1
    18    26    28    1
    19    26    29    1
    20    29    30   ar
    21    29    31   ar
    22     6     7   ar
    23     7     8   ar
    24     8     9   ar
    25     9    10   ar
    26    11    12    1
    27    12    13   ar
    28    13    14   ar
    29    14    15   ar
    30    15    16   ar
    31    10     1   ar
    32    16    12   ar
    33     9     4   ar
@<TRIPOS>MOLECULE
*****
 31 33 0 0 0
SMALL
GASTEIGER

@<TRIPOS>ATOM
      1 C          62.8450   84.8210   11.8788 C.ar    1  UNL1       -0.0004
      2 C          63.2874   84.3732   10.5173 C.ar    1  UNL1       -0.0024
      3 C          62.6944   85.0022    9.2915 C.ar    1  UNL1       -0.0002
      4 C          61.6590   86.0790    9.4271 C.ar    1  UNL1        0.0030
      5 C          61.0660   86.7079    8.2012 C.ar    1  UNL1        0.0369
      6 C          60.0306   87.7847    8.3368 C.ar    1  UNL1        0.1386
      7 C          59.5882   88.2326    9.6984 C.ar    1  UNL1        0.0369
      8 C          60.1811   87.6036   10.9242 C.ar    1  UNL1        0.0031
      9 C          61.2166   86.5268   10.7886 C.ar    1  UNL1       -0.0001
     10 C          61.8095   85.8979   12.0144 C.ar    1  UNL1       -0.0024
     11 C          63.4380   84.1921   13.1047 C.3     1  UNL1        0.1240
     12 N          63.1032   82.7728   13.4561 N.ar    1  UNL1       -0.3045
     13 C          63.6796   81.5460   12.8137 C.ar    1  UNL1        0.0983
     14 C          63.0659   80.3460   13.4722 C.ar    1  UNL1        0.1193
     15 N          62.1103   80.8312   14.5216 N.ar    1  UNL1       -0.2223
     16 C          62.1334   82.3310   14.5117 C.ar    1  UNL1        0.1788
     17 C          64.3656   84.9824   13.9792 C.3     1  UNL1        0.0826
     18 C          65.8442   84.7363   13.9197 C.3     1  UNL1        0.0197
     19 N          63.8149   86.0189   14.9132 N.3     1  UNL1       -0.2720
     20 C          62.8232   86.3162   17.2961 C.3     1  UNL1        0.0188
     21 C          62.8175   85.6281   15.9632 C.3     1  UNL1        0.0722
     22 C          64.2615   87.4462   14.7972 C.3     1  UNL1        0.0722
     23 C          63.8826   88.2550   13.5921 C.3     1  UNL1        0.0188
     24 O          59.4376   88.4137    7.1110 O.3     1  UNL1       -0.4751
     25 C          60.0168   89.6853    6.5655 C.3     1  UNL1        0.2103
     26 C          59.1754   90.5872    5.7119 C.3     1  UNL1        0.0724
     27 C          60.4154   91.1434    5.0772 C.3     1  UNL1        0.0093
     28 C          57.9354   90.0310    6.3467 C.3     1  UNL1        0.0093
     29 C          58.3339   91.4890    4.8584 C.2     1  UNL1        0.0532
     30 O          56.8390   91.4541    4.9772 O.co2   1  UNL1       -0.5491
     31 O          58.9873   92.4258    3.8860 O.co2   1  UNL1       -0.5491
@<TRIPOS>UNITY_ATOM_ATTR
30 1
charge -1
@<TRIPOS>BOND
     1    20    21    1
     2    21    19    1
     3    19    22    1
     4    22    23    1
     5    19    17    1
     6    17    18    1
     7    17    11    1
     8    11     1    1
     9     1     2   ar
    10     2     3   ar
    11     3     4   ar
    12     4     5   ar
    13     5     6   ar
    14     6    24    1
    15    24    25    1
    16    25    26    1
    17    26    27    1
    18    26    28    1
    19    26    29    1
    20    29    30   ar
    21    29    31   ar
    22     6     7   ar
    23     7     8   ar
    24     8     9   ar
    25     9    10   ar
    26    11    12    1
    27    12    13   ar
    28    13    14   ar
    29    14    15   ar
    30    15    16   ar
    31    10     1   ar
    32    16    12   ar
    33     9     4   ar
@<TRIPOS>MOLECULE
*****
 31 33 0 0 0
SMALL
GASTEIGER

@<TRIPOS>ATOM
      1 C          62.7039   84.9563   11.4554 C.ar    1  UNL1       -0.0004
      2 C          63.0347   84.4972   10.0663 C.ar    1  UNL1       -0.0024
      3 C          62.3871   85.1562    8.8846 C.ar    1  UNL1       -0.0002
      4 C          61.4088   86.2742    9.0920 C.ar    1  UNL1        0.0030
      5 C          60.7613   86.9331    7.9102 C.ar    1  UNL1        0.0369
      6 C          59.7830   88.0511    8.1177 C.ar    1  UNL1        0.1386
      7 C          59.4522   88.5101    9.5069 C.ar    1  UNL1        0.0369
      8 C          60.0998   87.8512   10.6886 C.ar    1  UNL1        0.0031
      9 C          61.0781   86.7332   10.4812 C.ar    1  UNL1       -0.0001
     10 C          61.7256   86.0743   11.6629 C.ar    1  UNL1       -0.0024
     11 C          63.3514   84.2974   12.6372 C.3     1  UNL1        0.1240
     12 N          63.5747   85.0749   13.9004 N.ar    1  UNL1       -0.3045
     13 C          63.4064   84.5549   15.2972 C.ar    1  UNL1        0.0983
     14 C          63.7332   85.6676   16.2486 C.ar    1  UNL1        0.1193
     15 N          64.1035   86.8753   15.4397 N.ar    1  UNL1       -0.2223
     16 C          64.0056   86.5090   13.9884 C.ar    1  UNL1        0.1788
     17 C          63.7756   82.8609   12.5558 C.3     1  UNL1        0.0826
     18 C          65.1952   82.5163   12.2147 C.3     1  UNL1        0.0197
     19 N          62.7804   81.7691   12.8156 N.3     1  UNL1       -0.2720
     20 C          60.7574   80.8482   14.1607 C.3     1  UNL1        0.0188
     21 C          61.8277   81.8815   13.9687 C.3     1  UNL1        0.0722
     22 C          62.7379   80.5649   11.9222 C.3     1  UNL1        0.0722
     23 C          62.9602   80.7176   10.4466 C.3     1  UNL1        0.0188
     24 O          59.1355   88.7100    6.9360 O.3     1  UNL1       -0.4751
     25 C          59.8866   89.7418    6.1477 C.3     1  UNL1        0.2103
     26 C          59.1384   90.8024    5.3958 C.3     1  UNL1        0.0724
     27 C          60.4195   91.2563    4.7613 C.3     1  UNL1        0.0093
     28 C          57.8573   90.3485    6.0303 C.3     1  UNL1        0.0093
     29 C          58.3902   91.8630    4.6440 C.2     1  UNL1        0.0532
     30 O          56.9373   92.1018    4.9303 O.co2   1  UNL1       -0.5491
     31 O          59.0950   92.6848    3.6057 O.co2   1  UNL1       -0.5491
@<TRIPOS>UNITY_ATOM_ATTR
30 1
charge -1
@<TRIPOS>BOND
     1    20    21    1
     2    21    19    1
     3    19    22    1
     4    22    23    1
     5    19    17    1
     6    17    18    1
     7    17    11    1
     8    11     1    1
     9     1     2   ar
    10     2     3   ar
    11     3     4   ar
    12     4     5   ar
    13     5     6   ar
    14     6    24    1
    15    24    25    1
    16    25    26    1
    17    26    27    1
    18    26    28    1
    19    26    29    1
    20    29    30   ar
    21    29    31   ar
    22     6     7   ar
    23     7     8   ar
    24     8     9   ar
    25     9    10   ar
    26    11    12    1
    27    12    13   ar
    28    13    14   ar
    29    14    15   ar
    30    15    16   ar
    31    10     1   ar
    32    16    12   ar
    33     9     4   ar
@<TRIPOS>MOLECULE
*****
 31 33 0 0 0
SMALL
GASTEIGER

@<TRIPOS>ATOM
      1 C          63.3874   86.3025   12.4838 C.ar    1  UNL1       -0.0004
      2 C          64.0292   85.9680   13.7977 C.ar    1  UNL1       -0.0024
      3 C          64.4625   87.0669   14.7220 C.ar    1  UNL1       -0.0002
      4 C          64.2541   88.5004   14.3325 C.ar    1  UNL1        0.0030
      5 C          64.6875   89.5994   15.2569 C.ar    1  UNL1        0.0369
      6 C          64.4791   91.0329   14.8674 C.ar    1  UNL1        0.1386
      7 C          63.8373   91.3674   13.5535 C.ar    1  UNL1        0.0369
      8 C          63.4040   90.2684   12.6291 C.ar    1  UNL1        0.0031
      9 C          63.6124   88.8349   13.0186 C.ar    1  UNL1       -0.0001
     10 C          63.1790   87.7360   12.0943 C.ar    1  UNL1       -0.0024
     11 C          62.9540   85.2035   11.5594 C.3     1  UNL1        0.1240
     12 N          62.1974   85.5320   10.3066 N.ar    1  UNL1       -0.3045
     13 C          60.8228   86.1283   10.2375 C.ar    1  UNL1        0.0983
     14 C          60.4584   86.2868    8.7910 C.ar    1  UNL1        0.1193
     15 N          61.6078   85.7884    7.9662 N.ar    1  UNL1       -0.2223
     16 C          62.6826   85.3219    8.9028 C.ar    1  UNL1        0.1788
     17 C          63.2773   83.7761   11.8878 C.3     1  UNL1        0.0826
     18 C          64.4272   83.0922   11.2095 C.3     1  UNL1        0.0197
     19 N          62.4506   83.0324   12.8946 N.3     1  UNL1       -0.2720
     20 C          62.7783   80.4976   13.3611 C.3     1  UNL1        0.0188
     21 C          62.0662   81.6047   12.6418 C.3     1  UNL1        0.0722
     22 C          62.0084   83.7164   14.1542 C.3     1  UNL1        0.0722
     23 C          62.6687   83.3844   15.4595 C.3     1  UNL1        0.0188
     24 O          64.9125   92.1319   15.7917 O.3     1  UNL1       -0.4751
     25 C          65.8588   93.1900   15.3071 C.3     1  UNL1        0.2103
     26 C          67.1550   92.7985   14.6618 C.3     1  UNL1        0.0724
     27 C          66.6573   93.3190   13.3461 C.3     1  UNL1        0.0093
     28 C          67.6528   92.2779   15.9775 C.3     1  UNL1        0.0093
     29 C          68.4512   92.4069   14.0165 C.2     1  UNL1        0.0532
     30 O          69.7530   92.7725   14.6661 O.co2   1  UNL1       -0.5491
     31 O          68.4458   91.6498   12.7216 O.co2   1  UNL1       -0.5491
@<TRIPOS>UNITY_ATOM_ATTR
30 1
charge -1
@<TRIPOS>BOND
     1    20    21    1
     2    21    19    1
     3    19    22    1
     4    22    23    1
     5    19    17    1
     6    17    18    1
     7    17    11    1
     8    11     1    1
     9     1     2   ar
    10     2     3   ar
    11     3     4   ar
    12     4     5   ar
    13     5     6   ar
    14     6    24    1
    15    24    25    1
    16    25    26    1
    17    26    27    1
    18    26    28    1
    19    26    29    1
    20    29    30   ar
    21    29    31   ar
    22     6     7   ar
    23     7     8   ar
    24     8     9   ar
    25     9    10   ar
    26    11    12    1
    27    12    13   ar
    28    13    14   ar
    29    14    15   ar
    30    15    16   ar
    31    10     1   ar
    32    16    12   ar
    33     9     4   ar
@<TRIPOS>MOLECULE
*****
 31 33 0 0 0
SMALL
GASTEIGER

@<TRIPOS>ATOM
      1 C          62.5589   87.7177   10.8056 C.ar    1  UNL1       -0.0004
      2 C          62.5576   89.0601   10.1365 C.ar    1  UNL1       -0.0024
      3 C          63.0409   90.2695   10.8807 C.ar    1  UNL1       -0.0002
      4 C          63.5256   90.1363   12.2940 C.ar    1  UNL1        0.0030
      5 C          64.0089   91.3458   13.0381 C.ar    1  UNL1        0.0369
      6 C          64.4936   91.2127   14.4514 C.ar    1  UNL1        0.1386
      7 C          64.4949   89.8701   15.1205 C.ar    1  UNL1        0.0369
      8 C          64.0115   88.6608   14.3764 C.ar    1  UNL1        0.0031
      9 C          63.5269   88.7939   12.9631 C.ar    1  UNL1       -0.0001
     10 C          63.0435   87.5846   12.2189 C.ar    1  UNL1       -0.0024
     11 C          62.0755   86.5082   10.0614 C.3     1  UNL1        0.1240
     12 N          62.6900   85.1667   10.3309 N.ar    1  UNL1       -0.3045
     13 C          63.6014   84.4130    9.4082 C.ar    1  UNL1        0.0983
     14 C          63.9757   83.1238   10.0774 C.ar    1  UNL1        0.1193
     15 N          63.2956   83.0806   11.4136 N.ar    1  UNL1       -0.2223
     16 C          62.5010   84.3432   11.5703 C.ar    1  UNL1        0.1788
     17 C          60.9777   86.6404    9.0479 C.3     1  UNL1        0.0826
     18 C          61.0294   85.8435    7.7780 C.3     1  UNL1        0.0197
     19 N          59.8283   87.5695    9.3040 N.3     1  UNL1       -0.2720
     20 C          59.4059   89.4062   11.0924 C.3     1  UNL1        0.0188
     21 C          59.4765   87.9575   10.7097 C.3     1  UNL1        0.0722
     22 C          59.0307   88.1105    8.1547 C.3     1  UNL1        0.0722
     23 C          59.6281   89.1459    7.2487 C.3     1  UNL1        0.0188
     24 O          64.9769   92.4220   15.1956 O.3     1  UNL1       -0.4751
     25 C          66.3721   92.9284   14.9783 C.3     1  UNL1        0.2103
     26 C          67.0920   92.6178   13.6996 C.3     1  UNL1        0.0724
     27 C          66.4077   93.7744   13.0334 C.3     1  UNL1        0.0093
     28 C          67.7764   91.4612   14.3659 C.3     1  UNL1        0.0093
     29 C          67.8120   92.3071   12.4209 C.2     1  UNL1        0.0532
     30 O          67.2153   92.7141   11.1062 O.co2   1  UNL1       -0.5491
     31 O          69.1287   91.5895   12.4568 O.co2   1  UNL1       -0.5491
@<TRIPOS>UNITY_ATOM_ATTR
30 1
charge -1
@<TRIPOS>BOND
     1    20    21    1
     2    21    19    1
     3    19    22    1
     4    22    23    1
     5    19    17    1
     6    17    18    1
     7    17    11    1
     8    11     1    1
     9     1     2   ar
    10     2     3   ar
    11     3     4   ar
    12     4     5   ar
    13     5     6   ar
    14     6    24    1
    15    24    25    1
    16    25    26    1
    17    26    27    1
    18    26    28    1
    19    26    29    1
    20    29    30   ar
    21    29    31   ar
    22     6     7   ar
    23     7     8   ar
    24     8     9   ar
    25     9    10   ar
    26    11    12    1
    27    12    13   ar
    28    13    14   ar
    29    14    15   ar
    30    15    16   ar
    31    10     1   ar
    32    16    12   ar
    33     9     4   ar
@<TRIPOS>MOLECULE
*****
 31 33 0 0 0
SMALL
GASTEIGER

@<TRIPOS>ATOM
      1 C          65.3489   91.8207   12.1742 C.ar    1  UNL1       -0.0004
      2 C          65.0631   90.9102   13.3314 C.ar    1  UNL1       -0.0024
      3 C          63.9020   89.9625   13.2711 C.ar    1  UNL1       -0.0002
      4 C          63.0267   89.9253   12.0535 C.ar    1  UNL1        0.0030
      5 C          61.8656   88.9776   11.9932 C.ar    1  UNL1        0.0369
      6 C          60.9903   88.9404   10.7756 C.ar    1  UNL1        0.1386
      7 C          61.2762   89.8509    9.6184 C.ar    1  UNL1        0.0369
      8 C          62.4373   90.7986    9.6787 C.ar    1  UNL1        0.0031
      9 C          63.3125   90.8358   10.8963 C.ar    1  UNL1       -0.0001
     10 C          64.4736   91.7835   10.9566 C.ar    1  UNL1       -0.0024
     11 C          66.5100   92.7685   12.2345 C.3     1  UNL1        0.1240
     12 N          66.5234   93.9942   11.3699 N.ar    1  UNL1       -0.3045
     13 C          66.1560   95.3826   11.8028 C.ar    1  UNL1        0.0983
     14 C          66.3120   96.2932   10.6211 C.ar    1  UNL1        0.1193
     15 N          66.7757   95.4675    9.4578 N.ar    1  UNL1       -0.2223
     16 C          66.9064   94.0467    9.9206 C.ar    1  UNL1        0.1788
     17 C          67.6578   92.4906   13.1594 C.3     1  UNL1        0.0826
     18 C          68.7936   91.6222   12.7054 C.3     1  UNL1        0.0197
     19 N          67.6698   93.0809   14.5383 N.3     1  UNL1       -0.2720
     20 C          69.3420   92.3291   16.3791 C.3     1  UNL1        0.0188
     21 C          68.9694   93.2621   15.2652 C.3     1  UNL1        0.0722
     22 C          66.3824   93.4902   15.1902 C.3     1  UNL1        0.0722
     23 C          65.7603   92.6144   16.2371 C.3     1  UNL1        0.0188
     24 O          59.8292   87.9927   10.7153 O.3     1  UNL1       -0.4751
     25 C          59.6170   87.1431    9.4974 C.3     1  UNL1        0.2103
     26 C          60.7455   86.3194    8.9516 C.3     1  UNL1        0.0724
     27 C          60.2603   86.5793    7.5562 C.3     1  UNL1        0.0093
     28 C          61.2307   86.0596   10.3469 C.3     1  UNL1        0.0093
     29 C          61.8740   85.4957    8.4057 C.2     1  UNL1        0.0532
     30 O          61.8801   85.0964    6.9598 O.co2   1  UNL1       -0.5491
     31 O          62.9965   85.0714    9.3058 O.co2   1  UNL1       -0.5491
@<TRIPOS>UNITY_ATOM_ATTR
30 1
charge -1
@<TRIPOS>BOND
     1    20    21    1
     2    21    19    1
     3    19    22    1
     4    22    23    1
     5    19    17    1
     6    17    18    1
     7    17    11    1
     8    11     1    1
     9     1     2   ar
    10     2     3   ar
    11     3     4   ar
    12     4     5   ar
    13     5     6   ar
    14     6    24    1
    15    24    25    1
    16    25    26    1
    17    26    27    1
    18    26    28    1
    19    26    29    1
    20    29    30   ar
    21    29    31   ar
    22     6     7   ar
    23     7     8   ar
    24     8     9   ar
    25     9    10   ar
    26    11    12    1
    27    12    13   ar
    28    13    14   ar
    29    14    15   ar
    30    15    16   ar
    31    10     1   ar
    32    16    12   ar
    33     9     4   ar
@<TRIPOS>MOLECULE
*****
 31 33 0 0 0
SMALL
GASTEIGER

@<TRIPOS>ATOM
      1 C          63.1882   86.4936   12.1853 C.ar    1  UNL1       -0.0004
      2 C          63.7418   86.0827   13.5174 C.ar    1  UNL1       -0.0024
      3 C          64.2029   87.1256   14.4919 C.ar    1  UNL1       -0.0002
      4 C          64.1105   88.5794   14.1342 C.ar    1  UNL1        0.0030
      5 C          64.5717   89.6224   15.1087 C.ar    1  UNL1        0.0369
      6 C          64.4793   91.0762   14.7510 C.ar    1  UNL1        0.1386
      7 C          63.9257   91.4870   13.4188 C.ar    1  UNL1        0.0369
      8 C          63.4645   90.4441   12.4443 C.ar    1  UNL1        0.0031
      9 C          63.5569   88.9903   12.8020 C.ar    1  UNL1       -0.0001
     10 C          63.0958   87.9474   11.8276 C.ar    1  UNL1       -0.0024
     11 C          62.7270   85.4507   11.2107 C.3     1  UNL1        0.1240
     12 N          62.8175   83.9970   11.5692 N.ar    1  UNL1       -0.3045
     13 C          62.2401   83.3536   12.7950 C.ar    1  UNL1        0.0983
     14 C          62.5670   81.8904   12.7483 C.ar    1  UNL1        0.1193
     15 N          63.3465   81.6294   11.4936 N.ar    1  UNL1       -0.2223
     16 C          63.5013   82.9314   10.7649 C.ar    1  UNL1        0.1788
     17 C          62.1754   85.8615    9.8777 C.3     1  UNL1        0.0826
     18 C          62.9904   85.6605    8.6345 C.3     1  UNL1        0.0197
     19 N          60.8088   86.4732    9.7879 N.3     1  UNL1       -0.2720
     20 C          60.0363   88.7284   10.8211 C.3     1  UNL1        0.0188
     21 C          60.2571   87.2501   10.9465 C.3     1  UNL1        0.0722
     22 C          59.9938   86.3082    8.5394 C.3     1  UNL1        0.0722
     23 C          59.6291   87.5089    7.7177 C.3     1  UNL1        0.0188
     24 O          64.9404   92.1191   15.7255 O.3     1  UNL1       -0.4751
     25 C          66.2905   92.7524   15.5633 C.3     1  UNL1        0.2103
     26 C          67.0689   92.5453   14.2980 C.3     1  UNL1        0.0724
     27 C          66.4423   93.7753   13.7111 C.3     1  UNL1        0.0093
     28 C          67.6956   91.3153   14.8848 C.3     1  UNL1        0.0093
     29 C          67.8474   92.3382   13.0326 C.2     1  UNL1        0.0532
     30 O          69.2612   91.8408   13.0947 O.co2   1  UNL1       -0.5491
     31 O          67.2121   92.6284   11.7052 O.co2   1  UNL1       -0.5491
@<TRIPOS>UNITY_ATOM_ATTR
30 1
charge -1
@<TRIPOS>BOND
     1    20    21    1
     2    21    19    1
     3    19    22    1
     4    22    23    1
     5    19    17    1
     6    17    18    1
     7    17    11    1
     8    11     1    1
     9     1     2   ar
    10     2     3   ar
    11     3     4   ar
    12     4     5   ar
    13     5     6   ar
    14     6    24    1
    15    24    25    1
    16    25    26    1
    17    26    27    1
    18    26    28    1
    19    26    29    1
    20    29    30   ar
    21    29    31   ar
    22     6     7   ar
    23     7     8   ar
    24     8     9   ar
    25     9    10   ar
    26    11    12    1
    27    12    13   ar
    28    13    14   ar
    29    14    15   ar
    30    15    16   ar
    31    10     1   ar
    32    16    12   ar
    33     9     4   ar
