@<TRIPOS>MOLECULE
*****
 43 46 0 0 0
SMALL
GASTEIGER

@<TRIPOS>ATOM
      1 C          60.2867   88.9311    9.0485 C.2     1  UNL1        0.2491
      2 O          60.1060   90.3336    9.5489 O.2     1  UNL1       -0.2727
      3 N          59.5513   88.4708    7.8248 N.am    1  UNL1       -0.2724
      4 C          61.2026   87.9889    9.7718 C.3     1  UNL1        0.1934
      5 C          63.4141   90.4688   11.9419 C.ar    1  UNL1        0.0529
      6 C          62.5040   89.9528   10.8671 C.ar    1  UNL1        0.0782
      7 N          62.1128   88.5049   10.8468 N.ar    1  UNL1       -0.2979
      8 C          62.6317   87.5730   11.9014 C.ar    1  UNL1        0.1750
      9 N          63.5418   88.0890   12.9763 N.ar    1  UNL1       -0.1847
     10 C          63.9330   89.5369   12.9965 C.ar    1  UNL1        0.2783
     11 O          64.8431   90.0529   14.0715 O.2     1  UNL1       -0.2654
     12 C          64.9962   92.3829   11.1783 C.3     1  UNL1        0.0052
     13 C          63.8054   91.9168   11.9622 C.3     1  UNL1        0.0328
     14 S          62.2404   86.1250   11.8811 S.3     1  UNL1       -0.0724
     15 C          63.2633   85.0676   12.1733 C.3     1  UNL1        0.0913
     16 C          62.8252   83.6962   12.5943 C.ar    1  UNL1       -0.0108
     17 C          62.8951   82.5553   11.6229 C.ar    1  UNL1       -0.0011
     18 C          62.4570   81.1839   12.0439 C.ar    1  UNL1        0.0293
     19 C          61.9488   80.9533   13.4363 C.ar    1  UNL1        0.1401
     20 F          61.5107   79.5819   13.8573 F       1  UNL1       -0.2042
     21 C          61.8789   82.0942   14.4076 C.ar    1  UNL1        0.0293
     22 C          62.3171   83.4656   13.9866 C.ar    1  UNL1       -0.0011
     23 C          59.7319   87.0682    7.3245 C.3     1  UNL1        0.1111
     24 C          60.5161   86.0784    8.1339 C.3     1  UNL1        0.0939
     25 N          61.6101   85.2807    7.4882 N.3     1  UNL1       -0.2712
     26 C          63.0119   85.3665    8.0150 C.3     1  UNL1        0.0722
     27 C          63.5676   84.2536    8.8533 C.3     1  UNL1        0.0188
     28 C          61.3023   84.3972    6.3158 C.3     1  UNL1        0.0722
     29 C          62.2932   84.2623    5.1977 C.3     1  UNL1        0.0188
     30 C          58.6353   89.4129    7.1015 C.3     1  UNL1        0.1202
     31 C          59.1724   90.2923    6.0116 C.ar    1  UNL1       -0.0023
     32 C          60.6285   90.2403    5.6550 C.ar    1  UNL1       -0.0026
     33 C          61.1656   91.1197    4.5650 C.ar    1  UNL1       -0.0003
     34 C          60.2467   92.0512    3.8315 C.ar    1  UNL1       -0.0000
     35 C          58.7906   92.1032    4.1881 C.ar    1  UNL1       -0.0003
     36 C          58.2535   91.2238    5.2781 C.ar    1  UNL1       -0.0026
     37 C          60.7838   92.9305    2.7415 C.ar    1  UNL1        0.0001
     38 C          62.0344   92.5404    2.0109 C.ar    1  UNL1        0.0009
     39 C          62.5715   93.4198    0.9209 C.ar    1  UNL1        0.0114
     40 C          61.8581   94.6894    0.5615 C.ar    1  UNL1        0.0577
     41 CL         62.3952   95.5689   -0.5285 Cl      1  UNL1       -0.0822
     42 C          60.6075   95.0796    1.2922 C.ar    1  UNL1        0.0114
     43 C          60.0704   94.2002    2.3821 C.ar    1  UNL1        0.0009
@<TRIPOS>BOND
     1    12    13    1
     2    13     5    1
     3     5     6   ar
     4     6     7   ar
     5     7     4    1
     6     4     1    1
     7     1     2    2
     8     1     3   am
     9     3    23    1
    10    23    24    1
    11    24    25    1
    12    25    26    1
    13    26    27    1
    14    25    28    1
    15    28    29    1
    16     3    30    1
    17    30    31    1
    18    31    32   ar
    19    32    33   ar
    20    33    34   ar
    21    34    37    1
    22    37    38   ar
    23    38    39   ar
    24    39    40   ar
    25    40    41    1
    26    40    42   ar
    27    42    43   ar
    28    34    35   ar
    29    35    36   ar
    30     7     8   ar
    31     8    14    1
    32    14    15    1
    33    15    16    1
    34    16    17   ar
    35    17    18   ar
    36    18    19   ar
    37    19    20    1
    38    19    21   ar
    39    21    22   ar
    40     8     9   ar
    41     9    10   ar
    42    10    11    2
    43    10     5   ar
    44    36    31   ar
    45    22    16   ar
    46    43    37   ar
@<TRIPOS>MOLECULE
*****
 43 46 0 0 0
SMALL
GASTEIGER

@<TRIPOS>ATOM
      1 C          62.7356   89.0716   11.4526 C.2     1  UNL1        0.2491
      2 O          63.5782   87.9809   12.0445 O.2     1  UNL1       -0.2727
      3 N          62.1672   88.9153   10.0732 N.am    1  UNL1       -0.2724
      4 C          62.4615   90.3186   12.2398 C.3     1  UNL1        0.1934
      5 C          65.6394   92.6772   12.5369 C.ar    1  UNL1        0.0529
      6 C          64.5021   91.8993   11.9441 C.ar    1  UNL1        0.0782
      7 N          63.5989   91.0965   12.8327 N.ar    1  UNL1       -0.2979
      8 C          63.8329   91.0715   14.3141 C.ar    1  UNL1        0.1750
      9 N          64.9702   91.8494   14.9069 N.ar    1  UNL1       -0.1847
     10 C          65.8734   92.6522   14.0183 C.ar    1  UNL1        0.2783
     11 O          67.0108   93.4301   14.6112 O.2     1  UNL1       -0.2654
     12 C          67.0335   92.8984   10.3558 C.3     1  UNL1        0.0052
     13 C          66.5427   93.4800   11.6484 C.3     1  UNL1        0.0328
     14 S          62.9296   90.2687   15.2027 S.3     1  UNL1       -0.0724
     15 C          63.5123   89.4147   16.2894 C.3     1  UNL1        0.0913
     16 C          63.6241   87.9310   16.0987 C.ar    1  UNL1       -0.0108
     17 C          64.4214   87.3800   14.9537 C.ar    1  UNL1       -0.0011
     18 C          64.5332   85.8964   14.7630 C.ar    1  UNL1        0.0293
     19 C          63.8478   84.9638   15.7173 C.ar    1  UNL1        0.1401
     20 F          63.9596   83.4802   15.5266 F       1  UNL1       -0.2042
     21 C          63.0507   85.5148   16.8622 C.ar    1  UNL1        0.0293
     22 C          62.9388   86.9984   17.0529 C.ar    1  UNL1       -0.0011
     23 C          61.3246   90.0061    9.4812 C.3     1  UNL1        0.1111
     24 C          59.8831   89.7479    9.1570 C.3     1  UNL1        0.0939
     25 N          59.5204   88.9096    7.9672 N.3     1  UNL1       -0.2712
     26 C          59.7331   89.4425    6.5813 C.3     1  UNL1        0.0722
     27 C          58.7260   90.3729    5.9728 C.3     1  UNL1        0.0188
     28 C          58.9451   87.5383    8.1632 C.3     1  UNL1        0.0722
     29 C          59.6635   86.3388    7.6199 C.3     1  UNL1        0.0188
     30 C          62.4413   87.6684    9.2859 C.3     1  UNL1        0.1202
     31 C          62.4491   86.3346    9.9722 C.ar    1  UNL1       -0.0023
     32 C          61.7309   86.1585   11.2773 C.ar    1  UNL1       -0.0026
     33 C          61.7388   84.8247   11.9636 C.ar    1  UNL1       -0.0003
     34 C          62.4648   83.6671   11.3449 C.ar    1  UNL1       -0.0000
     35 C          63.1831   83.8433   10.0399 C.ar    1  UNL1       -0.0003
     36 C          63.1752   85.1770    9.3535 C.ar    1  UNL1       -0.0026
     37 C          62.4727   82.3334   12.0312 C.ar    1  UNL1        0.0001
     38 C          62.1255   82.2372   13.4873 C.ar    1  UNL1        0.0009
     39 C          62.1333   80.9033   14.1736 C.ar    1  UNL1        0.0114
     40 C          62.4884   79.6659   13.4039 C.ar    1  UNL1        0.0577
     41 CL         62.4962   78.3321   14.0902 Cl      1  UNL1       -0.0822
     42 C          62.8356   79.7621   11.9478 C.ar    1  UNL1        0.0114
     43 C          62.8277   81.0958   11.2615 C.ar    1  UNL1        0.0009
@<TRIPOS>BOND
     1    12    13    1
     2    13     5    1
     3     5     6   ar
     4     6     7   ar
     5     7     4    1
     6     4     1    1
     7     1     2    2
     8     1     3   am
     9     3    23    1
    10    23    24    1
    11    24    25    1
    12    25    26    1
    13    26    27    1
    14    25    28    1
    15    28    29    1
    16     3    30    1
    17    30    31    1
    18    31    32   ar
    19    32    33   ar
    20    33    34   ar
    21    34    37    1
    22    37    38   ar
    23    38    39   ar
    24    39    40   ar
    25    40    41    1
    26    40    42   ar
    27    42    43   ar
    28    34    35   ar
    29    35    36   ar
    30     7     8   ar
    31     8    14    1
    32    14    15    1
    33    15    16    1
    34    16    17   ar
    35    17    18   ar
    36    18    19   ar
    37    19    20    1
    38    19    21   ar
    39    21    22   ar
    40     8     9   ar
    41     9    10   ar
    42    10    11    2
    43    10     5   ar
    44    36    31   ar
    45    22    16   ar
    46    43    37   ar
@<TRIPOS>MOLECULE
*****
 43 46 0 0 0
SMALL
GASTEIGER

@<TRIPOS>ATOM
      1 C          62.7549   85.2359   11.4392 C.2     1  UNL1        0.2491
      2 O          62.4236   85.5137   12.8756 O.2     1  UNL1       -0.2727
      3 N          62.3659   86.2199   10.3760 N.am    1  UNL1       -0.2724
      4 C          63.4752   83.9742   11.0661 C.3     1  UNL1        0.1934
      5 C          62.7469   80.2744   12.3036 C.ar    1  UNL1        0.0529
      6 C          62.8371   81.4801   11.4158 C.ar    1  UNL1        0.0782
      7 N          63.3851   82.7685   11.9540 N.ar    1  UNL1       -0.2979
      8 C          63.8429   82.8512   13.3800 C.ar    1  UNL1        0.1750
      9 N          63.7527   81.6456   14.2678 N.ar    1  UNL1       -0.1847
     10 C          63.2047   80.3572   13.7296 C.ar    1  UNL1        0.2783
     11 O          63.1146   79.1515   14.6174 O.2     1  UNL1       -0.2654
     12 C          62.6794   78.4598   10.4454 C.3     1  UNL1        0.0052
     13 C          62.1989   78.9860   11.7654 C.3     1  UNL1        0.0328
     14 S          64.3909   84.1397   13.9182 S.3     1  UNL1       -0.0724
     15 C          64.2111   84.4841   15.3670 C.3     1  UNL1        0.0913
     16 C          63.9225   85.8996   15.7711 C.ar    1  UNL1       -0.0108
     17 C          63.1074   86.1775   16.9993 C.ar    1  UNL1       -0.0011
     18 C          62.8189   87.5929   17.4035 C.ar    1  UNL1        0.0293
     19 C          63.3455   88.7304   16.5795 C.ar    1  UNL1        0.1401
     20 F          63.0570   90.1458   16.9837 F       1  UNL1       -0.2042
     21 C          64.1607   88.4524   15.3514 C.ar    1  UNL1        0.0293
     22 C          64.4492   87.0370   14.9472 C.ar    1  UNL1       -0.0011
     23 C          62.6973   85.9421    8.9396 C.3     1  UNL1        0.1111
     24 C          61.8555   86.5333    7.8479 C.3     1  UNL1        0.0939
     25 N          60.6532   85.7920    7.3430 N.3     1  UNL1       -0.2712
     26 C          60.8242   84.4869    6.6236 C.3     1  UNL1        0.0722
     27 C          61.9519   84.3091    5.6506 C.3     1  UNL1        0.0188
     28 C          59.2798   86.3557    7.5576 C.3     1  UNL1        0.0722
     29 C          59.1093   87.8069    7.8967 C.3     1  UNL1        0.0188
     30 C          61.6456   87.4816   10.7490 C.3     1  UNL1        0.1202
     31 C          62.4075   88.7656   10.8931 C.ar    1  UNL1       -0.0023
     32 C          62.4150   89.7630    9.7728 C.ar    1  UNL1       -0.0026
     33 C          63.1769   91.0470    9.9168 C.ar    1  UNL1       -0.0003
     34 C          63.9314   91.3336   11.1812 C.ar    1  UNL1       -0.0000
     35 C          63.9240   90.3362   12.3015 C.ar    1  UNL1       -0.0003
     36 C          63.1620   89.0522   12.1575 C.ar    1  UNL1       -0.0026
     37 C          64.6933   92.6176   11.3252 C.ar    1  UNL1        0.0001
     38 C          65.4475   92.9044   12.5897 C.ar    1  UNL1        0.0009
     39 C          66.2095   94.1885   12.7337 C.ar    1  UNL1        0.0114
     40 C          66.2172   95.1857   11.6132 C.ar    1  UNL1        0.0577
     41 CL         66.9792   96.4697   11.7572 Cl      1  UNL1       -0.0822
     42 C          65.4630   94.8989   10.3487 C.ar    1  UNL1        0.0114
     43 C          64.7011   93.6149   10.2047 C.ar    1  UNL1        0.0009
@<TRIPOS>BOND
     1    12    13    1
     2    13     5    1
     3     5     6   ar
     4     6     7   ar
     5     7     4    1
     6     4     1    1
     7     1     2    2
     8     1     3   am
     9     3    23    1
    10    23    24    1
    11    24    25    1
    12    25    26    1
    13    26    27    1
    14    25    28    1
    15    28    29    1
    16     3    30    1
    17    30    31    1
    18    31    32   ar
    19    32    33   ar
    20    33    34   ar
    21    34    37    1
    22    37    38   ar
    23    38    39   ar
    24    39    40   ar
    25    40    41    1
    26    40    42   ar
    27    42    43   ar
    28    34    35   ar
    29    35    36   ar
    30     7     8   ar
    31     8    14    1
    32    14    15    1
    33    15    16    1
    34    16    17   ar
    35    17    18   ar
    36    18    19   ar
    37    19    20    1
    38    19    21   ar
    39    21    22   ar
    40     8     9   ar
    41     9    10   ar
    42    10    11    2
    43    10     5   ar
    44    36    31   ar
    45    22    16   ar
    46    43    37   ar
@<TRIPOS>MOLECULE
*****
 43 46 0 0 0
SMALL
GASTEIGER

@<TRIPOS>ATOM
      1 C          62.3118   88.5210   12.6098 C.2     1  UNL1        0.2491
      2 O          61.4126   89.7193   12.6835 O.2     1  UNL1       -0.2727
      3 N          61.8800   87.3052   11.8447 N.am    1  UNL1       -0.2724
      4 C          63.6429   88.5385   13.3012 C.3     1  UNL1        0.1934
      5 C          65.1778   91.8725   14.8108 C.ar    1  UNL1        0.0529
      6 C          64.8498   90.7746   13.8428 C.ar    1  UNL1        0.0782
      7 N          63.9708   89.6364   14.2693 N.ar    1  UNL1       -0.2979
      8 C          63.4197   89.5961   15.6638 C.ar    1  UNL1        0.1750
      9 N          63.7477   90.6940   16.6318 N.ar    1  UNL1       -0.1847
     10 C          64.6267   91.8322   16.2053 C.ar    1  UNL1        0.2783
     11 O          64.9546   92.9301   17.1734 O.2     1  UNL1       -0.2654
     12 C          66.3448   93.2313   12.9289 C.3     1  UNL1        0.0052
     13 C          66.0568   93.0107   14.3843 C.3     1  UNL1        0.0328
     14 S          62.5407   88.4580   16.0903 S.3     1  UNL1       -0.0724
     15 C          63.1319   87.2833   16.8116 C.3     1  UNL1        0.0913
     16 C          63.3767   85.9981   16.0778 C.ar    1  UNL1       -0.0108
     17 C          62.3864   84.8760   16.1794 C.ar    1  UNL1       -0.0011
     18 C          62.6312   83.5909   15.4456 C.ar    1  UNL1        0.0293
     19 C          63.8663   83.4279   14.6101 C.ar    1  UNL1        0.1401
     20 F          64.1111   82.1428   13.8762 F       1  UNL1       -0.2042
     21 C          64.8566   84.5500   14.5085 C.ar    1  UNL1        0.0293
     22 C          64.6118   85.8351   15.2423 C.ar    1  UNL1       -0.0011
     23 C          62.7793   86.1069   11.7711 C.3     1  UNL1        0.1111
     24 C          62.3646   84.9058   10.9739 C.3     1  UNL1        0.0939
     25 N          63.0955   84.5543    9.7121 N.3     1  UNL1       -0.2712
     26 C          63.9486   83.3218    9.6580 C.3     1  UNL1        0.0722
     27 C          64.7008   82.8763   10.8768 C.3     1  UNL1        0.0188
     28 C          62.9733   85.4354    8.5043 C.3     1  UNL1        0.0722
     29 C          62.4986   84.8615    7.2022 C.3     1  UNL1        0.0188
     30 C          60.5490   87.2877   11.1533 C.3     1  UNL1        0.1202
     31 C          60.3472   88.0785    9.8949 C.ar    1  UNL1       -0.0023
     32 C          59.7410   87.4259    8.6880 C.ar    1  UNL1       -0.0026
     33 C          59.5392   88.2169    7.4295 C.ar    1  UNL1       -0.0003
     34 C          59.9434   89.6604    7.3780 C.ar    1  UNL1       -0.0000
     35 C          60.5496   90.3131    8.5849 C.ar    1  UNL1       -0.0003
     36 C          60.7514   89.5222    9.8433 C.ar    1  UNL1       -0.0026
     37 C          59.7416   90.4513    6.1195 C.ar    1  UNL1        0.0001
     38 C          60.9196   90.8148    5.2651 C.ar    1  UNL1        0.0009
     39 C          60.7177   91.6057    4.0066 C.ar    1  UNL1        0.0114
     40 C          59.3378   92.0331    3.6026 C.ar    1  UNL1        0.0577
     41 CL         59.1359   92.8240    2.3441 Cl      1  UNL1       -0.0822
     42 C          58.1598   91.6695    4.4571 C.ar    1  UNL1        0.0114
     43 C          58.3616   90.8787    5.7155 C.ar    1  UNL1        0.0009
@<TRIPOS>BOND
     1    12    13    1
     2    13     5    1
     3     5     6   ar
     4     6     7   ar
     5     7     4    1
     6     4     1    1
     7     1     2    2
     8     1     3   am
     9     3    23    1
    10    23    24    1
    11    24    25    1
    12    25    26    1
    13    26    27    1
    14    25    28    1
    15    28    29    1
    16     3    30    1
    17    30    31    1
    18    31    32   ar
    19    32    33   ar
    20    33    34   ar
    21    34    37    1
    22    37    38   ar
    23    38    39   ar
    24    39    40   ar
    25    40    41    1
    26    40    42   ar
    27    42    43   ar
    28    34    35   ar
    29    35    36   ar
    30     7     8   ar
    31     8    14    1
    32    14    15    1
    33    15    16    1
    34    16    17   ar
    35    17    18   ar
    36    18    19   ar
    37    19    20    1
    38    19    21   ar
    39    21    22   ar
    40     8     9   ar
    41     9    10   ar
    42    10    11    2
    43    10     5   ar
    44    36    31   ar
    45    22    16   ar
    46    43    37   ar
@<TRIPOS>MOLECULE
*****
 43 46 0 0 0
SMALL
GASTEIGER

@<TRIPOS>ATOM
      1 C          60.9386   88.6433   12.0393 C.2     1  UNL1        0.2491
      2 O          60.2771   89.9863   12.1343 O.2     1  UNL1       -0.2727
      3 N          62.2856   88.4250   12.6622 N.am    1  UNL1       -0.2724
      4 C          60.2531   87.5188   11.3215 C.3     1  UNL1        0.1934
      5 C          62.6118   85.0368    9.3149 C.ar    1  UNL1        0.0529
      6 C          61.9246   85.7285   10.4547 C.ar    1  UNL1        0.0782
      7 N          60.9404   86.8271   10.1816 N.ar    1  UNL1       -0.2979
      8 C          60.6434   87.2339    8.7687 C.ar    1  UNL1        0.1750
      9 N          61.3307   86.5422    7.6289 N.ar    1  UNL1       -0.1847
     10 C          62.3149   85.4437    7.9020 C.ar    1  UNL1        0.2783
     11 O          63.0022   84.7519    6.7621 O.2     1  UNL1       -0.2654
     12 C          63.4835   83.1256   10.8436 C.3     1  UNL1        0.0052
     13 C          63.5960   83.9383    9.5880 C.3     1  UNL1        0.0328
     14 S          59.6592   88.3324    8.4956 S.3     1  UNL1       -0.0724
     15 C          58.9387   88.3841    7.1811 C.3     1  UNL1        0.0913
     16 C          59.0898   89.5809    6.2895 C.ar    1  UNL1       -0.0108
     17 C          60.4486   89.9821    5.7966 C.ar    1  UNL1       -0.0011
     18 C          60.5998   91.1788    4.9050 C.ar    1  UNL1        0.0293
     19 C          59.3922   91.9744    4.5063 C.ar    1  UNL1        0.1401
     20 F          59.5434   93.1711    3.6147 F       1  UNL1       -0.2042
     21 C          58.0335   91.5732    4.9992 C.ar    1  UNL1        0.0293
     22 C          57.8823   90.3764    5.8908 C.ar    1  UNL1       -0.0011
     23 C          62.9470   87.0821   12.5672 C.3     1  UNL1        0.1111
     24 C          63.8725   86.6233   13.6548 C.3     1  UNL1        0.0939
     25 N          63.4231   85.5757   14.6298 N.3     1  UNL1       -0.2712
     26 C          63.8619   85.6468   16.0623 C.3     1  UNL1        0.0722
     27 C          62.9135   86.1422   17.1136 C.3     1  UNL1        0.0188
     28 C          62.5348   84.4570   14.1721 C.3     1  UNL1        0.0722
     29 C          62.6570   83.0988   14.7968 C.3     1  UNL1        0.0188
     30 C          62.9711   89.5496   13.3801 C.3     1  UNL1        0.1202
     31 C          63.7162   90.5928   12.6014 C.ar    1  UNL1       -0.0023
     32 C          63.2905   90.9318   11.2036 C.ar    1  UNL1       -0.0026
     33 C          64.0357   91.9751   10.4248 C.ar    1  UNL1       -0.0003
     34 C          65.2065   92.6792   11.0439 C.ar    1  UNL1       -0.0000
     35 C          65.6322   92.3402   12.4417 C.ar    1  UNL1       -0.0003
     36 C          64.8871   91.2970   13.2204 C.ar    1  UNL1       -0.0026
     37 C          65.9517   93.7224   10.2652 C.ar    1  UNL1        0.0001
     38 C          65.3902   95.1076   10.1388 C.ar    1  UNL1        0.0009
     39 C          66.1354   96.1509    9.3600 C.ar    1  UNL1        0.0114
     40 C          67.4420   95.8089    8.7076 C.ar    1  UNL1        0.0577
     41 CL         68.1872   96.8521    7.9288 Cl      1  UNL1       -0.0822
     42 C          68.0035   94.4237    8.8340 C.ar    1  UNL1        0.0114
     43 C          67.2584   93.3805    9.6127 C.ar    1  UNL1        0.0009
@<TRIPOS>BOND
     1    12    13    1
     2    13     5    1
     3     5     6   ar
     4     6     7   ar
     5     7     4    1
     6     4     1    1
     7     1     2    2
     8     1     3   am
     9     3    23    1
    10    23    24    1
    11    24    25    1
    12    25    26    1
    13    26    27    1
    14    25    28    1
    15    28    29    1
    16     3    30    1
    17    30    31    1
    18    31    32   ar
    19    32    33   ar
    20    33    34   ar
    21    34    37    1
    22    37    38   ar
    23    38    39   ar
    24    39    40   ar
    25    40    41    1
    26    40    42   ar
    27    42    43   ar
    28    34    35   ar
    29    35    36   ar
    30     7     8   ar
    31     8    14    1
    32    14    15    1
    33    15    16    1
    34    16    17   ar
    35    17    18   ar
    36    18    19   ar
    37    19    20    1
    38    19    21   ar
    39    21    22   ar
    40     8     9   ar
    41     9    10   ar
    42    10    11    2
    43    10     5   ar
    44    36    31   ar
    45    22    16   ar
    46    43    37   ar
@<TRIPOS>MOLECULE
*****
 43 46 0 0 0
SMALL
GASTEIGER

@<TRIPOS>ATOM
      1 C          62.0345   85.2258    9.9823 C.2     1  UNL1        0.2491
      2 O          61.5258   84.5526    8.7421 O.2     1  UNL1       -0.2727
      3 N          61.2342   86.3208   10.6232 N.am    1  UNL1       -0.2724
      4 C          63.3432   84.8041   10.5816 C.3     1  UNL1        0.1934
      5 C          63.1215   81.0469   11.8405 C.ar    1  UNL1        0.0529
      6 C          63.0598   82.2468   10.9425 C.ar    1  UNL1        0.0782
      7 N          63.4050   83.6041   11.4797 N.ar    1  UNL1       -0.2979
      8 C          63.8118   83.7616   12.9148 C.ar    1  UNL1        0.1750
      9 N          63.8735   82.5617   13.8128 N.ar    1  UNL1       -0.1847
     10 C          63.5284   81.2044   13.2757 C.ar    1  UNL1        0.2783
     11 O          63.5901   80.0045   14.1737 O.2     1  UNL1       -0.2654
     12 C          62.8112   79.4369    9.8253 C.3     1  UNL1        0.0052
     13 C          62.7764   79.6896   11.3034 C.3     1  UNL1        0.0328
     14 S          64.1569   85.1189   13.4520 S.3     1  UNL1       -0.0724
     15 C          64.0504   85.3928   14.9229 C.3     1  UNL1        0.0913
     16 C          63.8612   86.7980   15.4124 C.ar    1  UNL1       -0.0108
     17 C          64.3355   87.9523   14.5801 C.ar    1  UNL1       -0.0011
     18 C          64.1464   89.3575   15.0697 C.ar    1  UNL1        0.0293
     19 C          63.4830   89.6084   16.3915 C.ar    1  UNL1        0.1401
     20 F          63.2939   91.0136   16.8810 F       1  UNL1       -0.2042
     21 C          63.0088   88.4540   17.2237 C.ar    1  UNL1        0.0293
     22 C          63.1979   87.0488   16.7341 C.ar    1  UNL1       -0.0011
     23 C          61.7429   86.9940   11.8634 C.3     1  UNL1        0.1111
     24 C          62.6035   88.2175   11.7534 C.3     1  UNL1        0.0939
     25 N          62.0225   89.5712   12.0364 N.3     1  UNL1       -0.2712
     26 C          62.8194   90.8066   11.7387 C.3     1  UNL1        0.0722
     27 C          63.2421   91.1052   10.3308 C.3     1  UNL1        0.0188
     28 C          60.6447   89.6894   12.6173 C.3     1  UNL1        0.0722
     29 C          59.5211   90.2247   11.7799 C.3     1  UNL1        0.0188
     30 C          59.9255   86.7425   10.0239 C.3     1  UNL1        0.1202
     31 C          59.9016   87.7225    8.8886 C.ar    1  UNL1       -0.0023
     32 C          59.3801   87.3027    7.5463 C.ar    1  UNL1       -0.0026
     33 C          59.3563   88.2828    6.4109 C.ar    1  UNL1       -0.0003
     34 C          59.8539   89.6826    6.6179 C.ar    1  UNL1       -0.0000
     35 C          60.3754   90.1024    7.9602 C.ar    1  UNL1       -0.0003
     36 C          60.3992   89.1224    9.0956 C.ar    1  UNL1       -0.0026
     37 C          59.8301   90.6625    5.4826 C.ar    1  UNL1        0.0001
     38 C          58.5388   91.3094    5.0771 C.ar    1  UNL1        0.0009
     39 C          58.5150   92.2894    3.9417 C.ar    1  UNL1        0.0114
     40 C          59.7824   92.6225    3.2118 C.ar    1  UNL1        0.0577
     41 CL         59.7586   93.6026    2.0764 Cl      1  UNL1       -0.0822
     42 C          61.0736   91.9757    3.6173 C.ar    1  UNL1        0.0114
     43 C          61.0975   90.9957    4.7526 C.ar    1  UNL1        0.0009
@<TRIPOS>BOND
     1    12    13    1
     2    13     5    1
     3     5     6   ar
     4     6     7   ar
     5     7     4    1
     6     4     1    1
     7     1     2    2
     8     1     3   am
     9     3    23    1
    10    23    24    1
    11    24    25    1
    12    25    26    1
    13    26    27    1
    14    25    28    1
    15    28    29    1
    16     3    30    1
    17    30    31    1
    18    31    32   ar
    19    32    33   ar
    20    33    34   ar
    21    34    37    1
    22    37    38   ar
    23    38    39   ar
    24    39    40   ar
    25    40    41    1
    26    40    42   ar
    27    42    43   ar
    28    34    35   ar
    29    35    36   ar
    30     7     8   ar
    31     8    14    1
    32    14    15    1
    33    15    16    1
    34    16    17   ar
    35    17    18   ar
    36    18    19   ar
    37    19    20    1
    38    19    21   ar
    39    21    22   ar
    40     8     9   ar
    41     9    10   ar
    42    10    11    2
    43    10     5   ar
    44    36    31   ar
    45    22    16   ar
    46    43    37   ar
@<TRIPOS>MOLECULE
*****
 43 46 0 0 0
SMALL
GASTEIGER

@<TRIPOS>ATOM
      1 C          61.9762   88.0983   11.5737 C.2     1  UNL1        0.2491
      2 O          63.2327   88.4995   12.2880 O.2     1  UNL1       -0.2727
      3 N          61.2155   89.1100   10.7686 N.am    1  UNL1       -0.2724
      4 C          61.4804   86.6856   11.6644 C.3     1  UNL1        0.1934
      5 C          63.3773   84.3910    9.0402 C.ar    1  UNL1        0.0529
      6 C          62.5611   85.5107    9.6146 C.ar    1  UNL1        0.0782
      7 N          62.2967   85.5658   11.0901 N.ar    1  UNL1       -0.2979
      8 C          62.8486   84.5013   11.9912 C.ar    1  UNL1        0.1750
      9 N          63.6649   83.3816   11.4168 N.ar    1  UNL1       -0.1847
     10 C          63.9293   83.3265    9.9413 C.ar    1  UNL1        0.2783
     11 O          64.7456   82.2067    9.3670 O.2     1  UNL1       -0.2654
     12 C          62.5085   84.4868    6.5936 C.3     1  UNL1        0.0052
     13 C          63.6417   84.3359    7.5647 C.3     1  UNL1        0.0328
     14 S          62.5843   84.5564   13.4667 S.3     1  UNL1       -0.0724
     15 C          63.6889   84.9217   14.4134 C.3     1  UNL1        0.0913
     16 C          63.6193   86.2043   15.1880 C.ar    1  UNL1       -0.0108
     17 C          62.8951   86.2492   16.5009 C.ar    1  UNL1       -0.0011
     18 C          62.8256   87.5319   17.2755 C.ar    1  UNL1        0.0293
     19 C          63.4802   88.7696   16.7372 C.ar    1  UNL1        0.1401
     20 F          63.4106   90.0522   17.5119 F       1  UNL1       -0.2042
     21 C          64.2044   88.7246   15.4244 C.ar    1  UNL1        0.0293
     22 C          64.2739   87.4420   14.6498 C.ar    1  UNL1       -0.0011
     23 C          59.9590   88.7088   10.0544 C.3     1  UNL1        0.1111
     24 C          59.5817   89.3790    8.7666 C.3     1  UNL1        0.0939
     25 N          59.2799   88.5530    7.5515 N.3     1  UNL1       -0.2712
     26 C          58.8339   87.1291    7.7043 C.3     1  UNL1        0.0722
     27 C          59.8271   86.0133    7.5679 C.3     1  UNL1        0.0188
     28 C          59.4242   89.1509    6.1834 C.3     1  UNL1        0.0722
     29 C          58.8620   90.5117    5.8965 C.3     1  UNL1        0.0188
     30 C          61.7114   90.5227   10.6779 C.3     1  UNL1        0.1202
     31 C          62.8990   90.9540   11.4862 C.ar    1  UNL1       -0.0023
     32 C          64.1194   91.4906   10.7986 C.ar    1  UNL1       -0.0026
     33 C          65.3071   91.9220   11.6070 C.ar    1  UNL1       -0.0003
     34 C          65.2744   91.8167   13.1029 C.ar    1  UNL1       -0.0000
     35 C          64.0540   91.2801   13.7905 C.ar    1  UNL1       -0.0003
     36 C          62.8664   90.8488   12.9822 C.ar    1  UNL1       -0.0026
     37 C          66.4620   92.2480   13.9112 C.ar    1  UNL1        0.0001
     38 C          67.8492   91.9592   13.4189 C.ar    1  UNL1        0.0009
     39 C          69.0369   92.3906   14.2273 C.ar    1  UNL1        0.0114
     40 C          68.8373   93.1108   15.5278 C.ar    1  UNL1        0.0577
     41 CL         70.0250   93.5421   16.3362 Cl      1  UNL1       -0.0822
     42 C          67.4502   93.3996   16.0201 C.ar    1  UNL1        0.0114
     43 C          66.2625   92.9682   15.2118 C.ar    1  UNL1        0.0009
@<TRIPOS>BOND
     1    12    13    1
     2    13     5    1
     3     5     6   ar
     4     6     7   ar
     5     7     4    1
     6     4     1    1
     7     1     2    2
     8     1     3   am
     9     3    23    1
    10    23    24    1
    11    24    25    1
    12    25    26    1
    13    26    27    1
    14    25    28    1
    15    28    29    1
    16     3    30    1
    17    30    31    1
    18    31    32   ar
    19    32    33   ar
    20    33    34   ar
    21    34    37    1
    22    37    38   ar
    23    38    39   ar
    24    39    40   ar
    25    40    41    1
    26    40    42   ar
    27    42    43   ar
    28    34    35   ar
    29    35    36   ar
    30     7     8   ar
    31     8    14    1
    32    14    15    1
    33    15    16    1
    34    16    17   ar
    35    17    18   ar
    36    18    19   ar
    37    19    20    1
    38    19    21   ar
    39    21    22   ar
    40     8     9   ar
    41     9    10   ar
    42    10    11    2
    43    10     5   ar
    44    36    31   ar
    45    22    16   ar
    46    43    37   ar
@<TRIPOS>MOLECULE
*****
 43 46 0 0 0
SMALL
GASTEIGER

@<TRIPOS>ATOM
      1 C          61.8452   85.9319   11.1046 C.2     1  UNL1        0.2491
      2 O          61.2418   86.0729   12.4706 O.2     1  UNL1       -0.2727
      3 N          62.0603   87.1464   10.2507 N.am    1  UNL1       -0.2724
      4 C          62.2335   84.5767   10.5923 C.3     1  UNL1        0.1934
      5 C          62.9267   81.0186   12.2078 C.ar    1  UNL1        0.0529
      6 C          62.4517   82.0735   11.2531 C.ar    1  UNL1        0.0782
      7 N          62.7085   83.5218   11.5472 N.ar    1  UNL1       -0.2979
      8 C          63.4402   83.9152   12.7961 C.ar    1  UNL1        0.1750
      9 N          63.9151   82.8603   13.7508 N.ar    1  UNL1       -0.1847
     10 C          63.6584   81.4120   13.4567 C.ar    1  UNL1        0.2783
     11 O          64.1334   80.3571   14.4116 O.2     1  UNL1       -0.2654
     12 C          62.7255   79.0707   10.5005 C.3     1  UNL1        0.0052
     13 C          62.6699   79.5703   11.9137 C.3     1  UNL1        0.0328
     14 S          63.6969   85.3635   13.0902 S.3     1  UNL1       -0.0724
     15 C          64.5777   85.7504   14.2411 C.3     1  UNL1        0.0913
     16 C          63.9670   86.1511   15.5512 C.ar    1  UNL1       -0.0108
     17 C          63.8126   87.6034   15.8937 C.ar    1  UNL1       -0.0011
     18 C          63.2019   88.0041   17.2039 C.ar    1  UNL1        0.0293
     19 C          62.7456   86.9526   18.1715 C.ar    1  UNL1        0.1401
     20 F          62.1349   87.3534   19.4817 F       1  UNL1       -0.2042
     21 C          62.9000   85.5005   17.8290 C.ar    1  UNL1        0.0293
     22 C          63.5107   85.0997   16.5188 C.ar    1  UNL1       -0.0011
     23 C          62.6638   87.0054    8.8847 C.3     1  UNL1        0.1111
     24 C          62.4140   85.7653    8.0788 C.3     1  UNL1        0.0939
     25 N          61.0990   85.5755    7.3826 N.3     1  UNL1       -0.2712
     26 C          59.8443   86.1365    7.9835 C.3     1  UNL1        0.0722
     27 C          59.3139   87.4587    7.5139 C.3     1  UNL1        0.0188
     28 C          61.0385   84.8248    6.0854 C.3     1  UNL1        0.0722
     29 C          62.2395   84.0685    5.5999 C.3     1  UNL1        0.0188
     30 C          61.6721   88.5017   10.7630 C.3     1  UNL1        0.1202
     31 C          62.6727   89.3384   11.5036 C.ar    1  UNL1       -0.0023
     32 C          63.1916   88.8835   12.8354 C.ar    1  UNL1       -0.0026
     33 C          64.1922   89.7204   13.5761 C.ar    1  UNL1       -0.0003
     34 C          64.6739   91.0120   12.9849 C.ar    1  UNL1       -0.0000
     35 C          64.1550   91.4669   11.6531 C.ar    1  UNL1       -0.0003
     36 C          63.1544   90.6302   10.9124 C.ar    1  UNL1       -0.0026
     37 C          65.6745   91.8488   13.7255 C.ar    1  UNL1        0.0001
     38 C          65.9103   93.2727   13.3172 C.ar    1  UNL1        0.0009
     39 C          66.9109   94.1095   14.0579 C.ar    1  UNL1        0.0114
     40 C          67.6757   93.5223   15.2069 C.ar    1  UNL1        0.0577
     41 CL         68.6764   94.3591   15.9476 Cl      1  UNL1       -0.0822
     42 C          67.4399   92.0984   15.6153 C.ar    1  UNL1        0.0114
     43 C          66.4393   91.2616   14.8746 C.ar    1  UNL1        0.0009
@<TRIPOS>BOND
     1    12    13    1
     2    13     5    1
     3     5     6   ar
     4     6     7   ar
     5     7     4    1
     6     4     1    1
     7     1     2    2
     8     1     3   am
     9     3    23    1
    10    23    24    1
    11    24    25    1
    12    25    26    1
    13    26    27    1
    14    25    28    1
    15    28    29    1
    16     3    30    1
    17    30    31    1
    18    31    32   ar
    19    32    33   ar
    20    33    34   ar
    21    34    37    1
    22    37    38   ar
    23    38    39   ar
    24    39    40   ar
    25    40    41    1
    26    40    42   ar
    27    42    43   ar
    28    34    35   ar
    29    35    36   ar
    30     7     8   ar
    31     8    14    1
    32    14    15    1
    33    15    16    1
    34    16    17   ar
    35    17    18   ar
    36    18    19   ar
    37    19    20    1
    38    19    21   ar
    39    21    22   ar
    40     8     9   ar
    41     9    10   ar
    42    10    11    2
    43    10     5   ar
    44    36    31   ar
    45    22    16   ar
    46    43    37   ar
@<TRIPOS>MOLECULE
*****
 43 46 0 0 0
SMALL
GASTEIGER

@<TRIPOS>ATOM
      1 C          62.0943   88.3969   11.4601 C.2     1  UNL1        0.2491
      2 O          63.3256   88.7526   12.2393 O.2     1  UNL1       -0.2727
      3 N          61.4242   89.4301   10.6035 N.am    1  UNL1       -0.2724
      4 C          61.5330   87.0080   11.5373 C.3     1  UNL1        0.1934
      5 C          63.2211   84.3403    9.1324 C.ar    1  UNL1        0.0529
      6 C          62.4044   85.5066    9.6043 C.ar    1  UNL1        0.0782
      7 N          62.3497   85.8417   11.0654 N.ar    1  UNL1       -0.2979
      8 C          63.1117   85.0104   12.0545 C.ar    1  UNL1        0.1750
      9 N          63.9283   83.8442   11.5826 N.ar    1  UNL1       -0.1847
     10 C          63.9830   83.5091   10.1215 C.ar    1  UNL1        0.2783
     11 O          64.7998   82.3427    9.6496 O.2     1  UNL1       -0.2654
     12 C          62.4701   84.8020    6.6884 C.3     1  UNL1        0.0052
     13 C          63.2757   84.0053    7.6713 C.3     1  UNL1        0.0328
     14 S          63.0570   85.3455   13.5156 S.3     1  UNL1       -0.0724
     15 C          63.3480   84.2882   14.5389 C.3     1  UNL1        0.0913
     16 C          62.9924   82.8576   14.2613 C.ar    1  UNL1       -0.0108
     17 C          64.0684   81.8703   13.9186 C.ar    1  UNL1       -0.0011
     18 C          63.7128   80.4397   13.6409 C.ar    1  UNL1        0.0293
     19 C          62.2812   79.9965   13.7061 C.ar    1  UNL1        0.1401
     20 F          61.9256   78.5660   13.4285 F       1  UNL1       -0.2042
     21 C          61.2053   80.9838   14.0489 C.ar    1  UNL1        0.0293
     22 C          61.5609   82.4144   14.3265 C.ar    1  UNL1       -0.0011
     23 C          60.1928   89.0743    9.8243 C.3     1  UNL1        0.1111
     24 C          59.9501   89.6952    8.4806 C.3     1  UNL1        0.0939
     25 N          59.3438   88.8807    7.3765 N.3     1  UNL1       -0.2712
     26 C          59.3219   89.4153    5.9752 C.3     1  UNL1        0.0722
     27 C          58.6765   90.7383    5.6873 C.3     1  UNL1        0.0188
     28 C          58.7595   87.5316    7.6737 C.3     1  UNL1        0.0722
     29 C          59.6283   86.3099    7.6216 C.3     1  UNL1        0.0188
     30 C          61.9854   90.8189   10.5263 C.3     1  UNL1        0.1202
     31 C          63.1595   91.2018   11.3776 C.ar    1  UNL1       -0.0023
     32 C          64.4016   91.7498   10.7397 C.ar    1  UNL1       -0.0026
     33 C          65.5758   92.1326   11.5911 C.ar    1  UNL1       -0.0003
     34 C          65.5078   91.9674   13.0804 C.ar    1  UNL1       -0.0000
     35 C          64.2658   91.4194   13.7183 C.ar    1  UNL1       -0.0003
     36 C          63.0917   91.0365   12.8670 C.ar    1  UNL1       -0.0026
     37 C          66.6819   92.3502   13.9318 C.ar    1  UNL1        0.0001
     38 C          66.4702   93.1354   15.1922 C.ar    1  UNL1        0.0009
     39 C          67.6444   93.5183   16.0435 C.ar    1  UNL1        0.0114
     40 C          69.0303   93.1159   15.6345 C.ar    1  UNL1        0.0577
     41 CL         70.2045   93.4987   16.4858 Cl      1  UNL1       -0.0822
     42 C          69.2420   92.3307   14.3741 C.ar    1  UNL1        0.0114
     43 C          68.0679   91.9479   13.5227 C.ar    1  UNL1        0.0009
@<TRIPOS>BOND
     1    12    13    1
     2    13     5    1
     3     5     6   ar
     4     6     7   ar
     5     7     4    1
     6     4     1    1
     7     1     2    2
     8     1     3   am
     9     3    23    1
    10    23    24    1
    11    24    25    1
    12    25    26    1
    13    26    27    1
    14    25    28    1
    15    28    29    1
    16     3    30    1
    17    30    31    1
    18    31    32   ar
    19    32    33   ar
    20    33    34   ar
    21    34    37    1
    22    37    38   ar
    23    38    39   ar
    24    39    40   ar
    25    40    41    1
    26    40    42   ar
    27    42    43   ar
    28    34    35   ar
    29    35    36   ar
    30     7     8   ar
    31     8    14    1
    32    14    15    1
    33    15    16    1
    34    16    17   ar
    35    17    18   ar
    36    18    19   ar
    37    19    20    1
    38    19    21   ar
    39    21    22   ar
    40     8     9   ar
    41     9    10   ar
    42    10    11    2
    43    10     5   ar
    44    36    31   ar
    45    22    16   ar
    46    43    37   ar
