@<TRIPOS>MOLECULE
*****
 33 36 0 0 0
SMALL
GASTEIGER

@<TRIPOS>ATOM
      1 N          63.4354   86.1454   13.1581 N.pl3   1  UNL1       -0.2847
      2 C          64.2302   86.8982   14.1834 C.3     1  UNL1        0.1141
      3 C          64.3323   88.3926   14.1043 C.3     1  UNL1        0.1149
      4 N          63.6394   89.1342   12.9997 N.am    1  UNL1       -0.2760
      5 C          63.7415   90.6287   12.9206 C.2     1  UNL1        0.2257
      6 O          63.0487   91.3703   11.8161 O.2     1  UNL1       -0.2749
      7 C          62.8446   88.3814   11.9744 C.3     1  UNL1        0.1149
      8 C          62.7425   86.8870   12.0535 C.3     1  UNL1        0.1141
      9 C          64.5364   91.3815   13.9460 C.3     1  UNL1        0.0853
     10 C          64.2033   91.2442   15.4021 C.3     1  UNL1        0.0096
     11 C          64.9982   91.9971   16.4275 C.3     1  UNL1        0.0005
     12 C          66.1262   92.8871   15.9968 C.3     1  UNL1        0.0005
     13 C          66.4592   93.0244   14.5407 C.3     1  UNL1        0.0096
     14 C          65.6643   92.2716   13.5153 C.3     1  UNL1        0.0851
     15 C          65.9974   92.4089   12.0592 C.2     1  UNL1        0.2231
     16 O          65.0288   91.9279   11.0197 O.2     1  UNL1       -0.2751
     17 N          67.2990   93.0271   11.6426 N.am    1  UNL1       -0.2959
     18 H          67.9347   93.3427   12.3248 H       1  UNL1        0.1502
     19 C          67.6321   93.1643   10.1865 C.3     1  UNL1        0.1364
     20 C          68.2106   92.8548    8.8376 C.3     1  UNL1        0.0353
     21 C          68.4546   91.9256    9.9895 C.3     1  UNL1        0.0353
     22 C          66.9251   94.4508    9.8777 C.1     1  UNL1        0.0896
     23 N          66.2183   95.7372    9.5689 N.1     1  UNL1       -0.1943
     24 C          63.1287   82.3149   12.6114 C.ar    1  UNL1        0.0415
     25 C          63.2237   82.3876   14.1067 C.ar    1  UNL1        0.1040
     26 N          63.3502   83.8313   14.4934 N.ar    1  UNL1       -0.2228
     27 C          63.3333   84.6509   13.2372 C.ar    1  UNL1        0.1629
     28 S          63.1965   83.7137   12.0741 S.2     1  UNL1       -0.0549
     29 C          62.4631   80.3384   12.9994 C.3     1  UNL1        0.0202
     30 C          62.9903   81.0631   11.7966 C.3     1  UNL1        0.1051
     31 C          63.5176   81.7878   10.5937 C.3     1  UNL1        0.0202
     32 C          62.8519   79.8114   10.9817 C.1     1  UNL1        0.0758
     33 N          62.7135   78.5597   10.1669 N.1     1  UNL1       -0.1956
@<TRIPOS>BOND
     1    29    30    1
     2    30    31    1
     3    30    32    1
     4    32    33    3
     5    30    24    1
     6    24    25   ar
     7    25    26   ar
     8    26    27   ar
     9    27     1    1
    10     1     2    1
    11     2     3    1
    12     3     4    1
    13     4     5   am
    14     5     6    2
    15     9     5    1
    16     9    10    1
    17    10    11    1
    18    11    12    1
    19    12    13    1
    20    13    14    1
    21    14    15    1
    22    15    16    2
    23    15    17   am
    24    17    19    1
    25    19    22    1
    26    22    23    3
    27    19    20    1
    28    20    21    1
    29     4     7    1
    30     7     8    1
    31    27    28   ar
    32    28    24   ar
    33     8     1    1
    34    14     9    1
    35    21    19    1
    36    17    18    1
@<TRIPOS>MOLECULE
*****
 33 36 0 0 0
SMALL
GASTEIGER

@<TRIPOS>ATOM
      1 N          63.5620   85.4772   14.6582 N.pl3   1  UNL1       -0.2847
      2 C          64.1892   86.4242   13.6785 C.3     1  UNL1        0.1141
      3 C          64.3053   87.8816   14.0135 C.3     1  UNL1        0.1149
      4 N          63.7943   88.3921   15.3281 N.am    1  UNL1       -0.2760
      5 C          63.9105   89.8497   15.6630 C.2     1  UNL1        0.2257
      6 O          63.3995   90.3602   16.9776 O.2     1  UNL1       -0.2749
      7 C          63.1671   87.4452   16.3078 C.3     1  UNL1        0.1149
      8 C          63.0509   85.9877   15.9728 C.3     1  UNL1        0.1141
      9 C          64.5377   90.7967   14.6833 C.3     1  UNL1        0.0853
     10 C          65.7592   91.5764   15.0706 C.3     1  UNL1        0.0096
     11 C          66.3864   92.5234   14.0909 C.3     1  UNL1        0.0005
     12 C          65.7921   92.6907   12.7238 C.3     1  UNL1        0.0005
     13 C          64.5706   91.9110   12.3365 C.3     1  UNL1        0.0096
     14 C          63.9434   90.9640   13.3162 C.3     1  UNL1        0.0851
     15 C          62.7219   90.1843   12.9289 C.2     1  UNL1        0.2231
     16 O          61.6176   89.9776   13.9229 O.2     1  UNL1       -0.2751
     17 N          62.6046   89.6113   11.5477 N.am    1  UNL1       -0.2959
     18 H          63.3294   89.7469   10.8953 H       1  UNL1        0.1502
     19 C          61.3831   88.8316   11.1603 C.3     1  UNL1        0.1364
     20 C          60.5201   87.6745   10.7526 C.3     1  UNL1        0.0353
     21 C          61.9911   87.4740   10.9670 C.3     1  UNL1        0.0353
     22 C          60.3509   89.9183   11.2191 C.1     1  UNL1        0.0896
     23 N          59.3187   91.0051   11.2780 N.1     1  UNL1       -0.1943
     24 C          63.2093   81.9486   13.0802 C.ar    1  UNL1        0.0415
     25 C          63.3246   81.6049   14.5358 C.ar    1  UNL1        0.1040
     26 N          63.4707   82.8849   15.3040 N.ar    1  UNL1       -0.2228
     27 C          63.4458   84.0196   14.3233 C.ar    1  UNL1        0.1629
     28 S          63.2842   83.4409   12.9489 S.2     1  UNL1       -0.0549
     29 C          62.5131   79.9515   12.9151 C.3     1  UNL1        0.0202
     30 C          63.0475   80.9714   11.9537 C.3     1  UNL1        0.1051
     31 C          63.5820   81.9912   10.9923 C.3     1  UNL1        0.0202
     32 C          62.8858   79.9942   10.8272 C.1     1  UNL1        0.0758
     33 N          62.7240   79.0171    9.7008 N.1     1  UNL1       -0.1956
@<TRIPOS>BOND
     1    29    30    1
     2    30    31    1
     3    30    32    1
     4    32    33    3
     5    30    24    1
     6    24    25   ar
     7    25    26   ar
     8    26    27   ar
     9    27     1    1
    10     1     2    1
    11     2     3    1
    12     3     4    1
    13     4     5   am
    14     5     6    2
    15     9     5    1
    16     9    10    1
    17    10    11    1
    18    11    12    1
    19    12    13    1
    20    13    14    1
    21    14    15    1
    22    15    16    2
    23    15    17   am
    24    17    19    1
    25    19    22    1
    26    22    23    3
    27    19    20    1
    28    20    21    1
    29     4     7    1
    30     7     8    1
    31    27    28   ar
    32    28    24   ar
    33     8     1    1
    34    14     9    1
    35    21    19    1
    36    17    18    1
@<TRIPOS>MOLECULE
*****
 33 36 0 0 0
SMALL
GASTEIGER

@<TRIPOS>ATOM
      1 N          63.6276   91.1513   11.3999 N.pl3   1  UNL1       -0.2847
      2 C          63.3182   90.5006   10.0844 C.3     1  UNL1        0.1141
      3 C          62.2918   89.4092   10.0105 C.3     1  UNL1        0.1149
      4 N          61.5749   88.9686   11.2522 N.am    1  UNL1       -0.2760
      5 C          60.5485   87.8772   11.1783 C.2     1  UNL1        0.2257
      6 O          59.8315   87.4366   12.4200 O.2     1  UNL1       -0.2749
      7 C          61.8843   89.6193   12.5678 C.3     1  UNL1        0.1149
      8 C          62.9106   90.7107   12.6416 C.3     1  UNL1        0.1141
      9 C          60.2391   87.2264    9.8627 C.3     1  UNL1        0.0853
     10 C          59.1694   87.7948    8.9780 C.3     1  UNL1        0.0096
     11 C          58.8601   87.1440    7.6624 C.3     1  UNL1        0.0005
     12 C          59.6203   85.9248    7.2316 C.3     1  UNL1        0.0005
     13 C          60.6900   85.3564    8.1163 C.3     1  UNL1        0.0096
     14 C          60.9994   86.0072    9.4319 C.3     1  UNL1        0.0851
     15 C          62.0690   85.4388   10.3166 C.2     1  UNL1        0.2231
     16 O          63.3233   84.8800    9.7128 O.2     1  UNL1       -0.2751
     17 N          61.8844   85.4292   11.8052 N.am    1  UNL1       -0.2959
     18 H          61.0612   85.7959   12.2015 H       1  UNL1        0.1502
     19 C          62.9540   84.8608   12.6899 C.3     1  UNL1        0.1364
     20 C          64.0993   84.8012   13.6567 C.3     1  UNL1        0.0353
     21 C          63.5433   86.1285   13.2336 C.3     1  UNL1        0.0353
     22 C          62.7363   83.3956   12.4536 C.1     1  UNL1        0.0896
     23 N          62.5185   81.9304   12.2173 N.1     1  UNL1       -0.1943
     24 C          66.2210   93.9845   10.8403 C.ar    1  UNL1        0.0415
     25 C          66.2458   93.8599   12.3350 C.ar    1  UNL1        0.1040
     26 N          65.2773   92.7835   12.7265 N.ar    1  UNL1       -0.2228
     27 C          64.6540   92.2427   11.4738 C.ar    1  UNL1        0.1629
     28 S          65.2372   92.9850   10.3081 S.2     1  UNL1       -0.0549
     29 C          67.6513   93.7867    9.2863 C.3     1  UNL1        0.0202
     30 C          67.0367   94.9407   10.0216 C.3     1  UNL1        0.1051
     31 C          66.4221   96.0946   10.7569 C.3     1  UNL1        0.0202
     32 C          67.8525   95.8968    9.2029 C.1     1  UNL1        0.0758
     33 N          68.6682   96.8529    8.3842 N.1     1  UNL1       -0.1956
@<TRIPOS>BOND
     1    29    30    1
     2    30    31    1
     3    30    32    1
     4    32    33    3
     5    30    24    1
     6    24    25   ar
     7    25    26   ar
     8    26    27   ar
     9    27     1    1
    10     1     2    1
    11     2     3    1
    12     3     4    1
    13     4     5   am
    14     5     6    2
    15     9     5    1
    16     9    10    1
    17    10    11    1
    18    11    12    1
    19    12    13    1
    20    13    14    1
    21    14    15    1
    22    15    16    2
    23    15    17   am
    24    17    19    1
    25    19    22    1
    26    22    23    3
    27    19    20    1
    28    20    21    1
    29     4     7    1
    30     7     8    1
    31    27    28   ar
    32    28    24   ar
    33     8     1    1
    34    14     9    1
    35    21    19    1
    36    17    18    1
@<TRIPOS>MOLECULE
*****
 33 36 0 0 0
SMALL
GASTEIGER

@<TRIPOS>ATOM
      1 N          60.7554   87.9580    9.2445 N.pl3   1  UNL1       -0.2847
      2 C          60.7027   86.4801    9.4950 C.3     1  UNL1        0.1141
      3 C          61.4968   85.8810   10.6176 C.3     1  UNL1        0.1149
      4 N          62.3436   86.7598   11.4898 N.am    1  UNL1       -0.2760
      5 C          63.1377   86.1606   12.6125 C.2     1  UNL1        0.2257
      6 O          63.9846   87.0394   13.4846 O.2     1  UNL1       -0.2749
      7 C          62.3963   88.2377   11.2392 C.3     1  UNL1        0.1149
      8 C          61.6022   88.8369   10.1166 C.3     1  UNL1        0.1141
      9 C          63.0850   84.6826   12.8630 C.3     1  UNL1        0.0853
     10 C          63.4383   83.7228   11.7657 C.3     1  UNL1        0.0096
     11 C          63.3856   82.2448   12.0163 C.3     1  UNL1        0.0005
     12 C          62.9796   81.7266   13.3641 C.3     1  UNL1        0.0005
     13 C          62.6263   82.6864   14.4614 C.3     1  UNL1        0.0096
     14 C          62.6790   84.1644   14.2108 C.3     1  UNL1        0.0851
     15 C          62.3257   85.1241   15.3081 C.2     1  UNL1        0.2231
     16 O          60.8974   85.2760   15.7407 O.2     1  UNL1       -0.2751
     17 N          63.4006   85.9321   15.9728 N.am    1  UNL1       -0.2959
     18 H          64.3380   85.8324   15.6889 H       1  UNL1        0.1502
     19 C          63.0473   86.8919   17.0701 C.3     1  UNL1        0.1364
     20 C          62.6994   87.4053   18.4358 C.3     1  UNL1        0.0353
     21 C          62.9403   85.9400   18.2244 C.3     1  UNL1        0.0353
     22 C          63.0315   88.1771   16.2969 C.1     1  UNL1        0.0896
     23 N          63.0157   89.4624   15.5237 N.1     1  UNL1       -0.1943
     24 C          59.2948   89.9651    6.2605 C.ar    1  UNL1        0.0415
     25 C          58.1837   88.9934    6.5278 C.ar    1  UNL1        0.1040
     26 N          58.5956   88.1234    7.6781 N.ar    1  UNL1       -0.2228
     27 C          59.9613   88.5573    8.1217 C.ar    1  UNL1        0.1629
     28 S          60.3934   89.6955    7.2456 S.2     1  UNL1       -0.0549
     29 C          60.7930   90.8769    5.0671 C.3     1  UNL1        0.0202
     30 C          59.3054   91.0210    5.1951 C.3     1  UNL1        0.1051
     31 C          57.8178   91.1650    5.3231 C.3     1  UNL1        0.0202
     32 C          59.3160   92.0769    4.1297 C.1     1  UNL1        0.0758
     33 N          59.3266   93.1327    3.0644 N.1     1  UNL1       -0.1956
@<TRIPOS>BOND
     1    29    30    1
     2    30    31    1
     3    30    32    1
     4    32    33    3
     5    30    24    1
     6    24    25   ar
     7    25    26   ar
     8    26    27   ar
     9    27     1    1
    10     1     2    1
    11     2     3    1
    12     3     4    1
    13     4     5   am
    14     5     6    2
    15     9     5    1
    16     9    10    1
    17    10    11    1
    18    11    12    1
    19    12    13    1
    20    13    14    1
    21    14    15    1
    22    15    16    2
    23    15    17   am
    24    17    19    1
    25    19    22    1
    26    22    23    3
    27    19    20    1
    28    20    21    1
    29     4     7    1
    30     7     8    1
    31    27    28   ar
    32    28    24   ar
    33     8     1    1
    34    14     9    1
    35    21    19    1
    36    17    18    1
@<TRIPOS>MOLECULE
*****
 33 36 0 0 0
SMALL
GASTEIGER

@<TRIPOS>ATOM
      1 N          72.2072   77.0857   13.4921 N.pl3   1  UNL1       -0.2847
      2 C          73.1280   75.9101   13.6333 C.3     1  UNL1        0.1141
      3 C          72.6825   74.6954   14.3921 C.3     1  UNL1        0.1149
      4 N          71.3161   74.6563   15.0097 N.am    1  UNL1       -0.2760
      5 C          70.8705   73.4414   15.7685 C.2     1  UNL1        0.2257
      6 O          69.5041   73.4023   16.3862 O.2     1  UNL1       -0.2749
      7 C          70.3953   75.8319   14.8685 C.3     1  UNL1        0.1149
      8 C          70.8408   77.0466   14.1097 C.3     1  UNL1        0.1141
      9 C          71.7913   72.2658   15.9097 C.3     1  UNL1        0.0853
     10 C          72.6886   72.1554   17.1067 C.3     1  UNL1        0.0096
     11 C          73.6095   70.9797   17.2478 C.3     1  UNL1        0.0005
     12 C          73.6330   69.9145   16.1920 C.3     1  UNL1        0.0005
     13 C          72.7357   70.0249   14.9951 C.3     1  UNL1        0.0096
     14 C          71.8149   71.2005   14.8539 C.3     1  UNL1        0.0851
     15 C          70.9176   71.3109   13.6570 C.2     1  UNL1        0.2231
     16 O          69.7112   72.2011   13.7036 O.2     1  UNL1       -0.2751
     17 N          71.2266   70.5311   12.4135 N.am    1  UNL1       -0.2959
     18 H          72.0184   69.9468   12.3829 H       1  UNL1        0.1502
     19 C          70.3293   70.6415   11.2165 C.3     1  UNL1        0.1364
     20 C          69.8683   70.9598    9.8252 C.3     1  UNL1        0.0353
     21 C          71.2737   71.2787   10.2409 C.3     1  UNL1        0.0353
     22 C          69.0733   70.0425   11.7765 C.1     1  UNL1        0.0896
     23 N          67.8172   69.4437   12.3364 N.1     1  UNL1       -0.1943
     24 C          73.0439   79.8854   10.9372 C.ar    1  UNL1        0.0415
     25 C          73.6328   80.4545   12.1940 C.ar    1  UNL1        0.1040
     26 N          73.3911   79.4750   13.3040 N.ar    1  UNL1       -0.2228
     27 C          72.6528   78.3006   12.7333 C.ar    1  UNL1        0.1629
     28 S          72.4382   78.5542   11.2705 S.2     1  UNL1       -0.0549
     29 C          72.9379   81.8825   10.2299 C.3     1  UNL1        0.0202
     30 C          73.0583   80.5337    9.5846 C.3     1  UNL1        0.1051
     31 C          73.1786   79.1850    8.9394 C.3     1  UNL1        0.0202
     32 C          73.0726   81.1821    8.2320 C.1     1  UNL1        0.0758
     33 N          73.0869   81.8304    6.8795 N.1     1  UNL1       -0.1956
@<TRIPOS>BOND
     1    29    30    1
     2    30    31    1
     3    30    32    1
     4    32    33    3
     5    30    24    1
     6    24    25   ar
     7    25    26   ar
     8    26    27   ar
     9    27     1    1
    10     1     2    1
    11     2     3    1
    12     3     4    1
    13     4     5   am
    14     5     6    2
    15     9     5    1
    16     9    10    1
    17    10    11    1
    18    11    12    1
    19    12    13    1
    20    13    14    1
    21    14    15    1
    22    15    16    2
    23    15    17   am
    24    17    19    1
    25    19    22    1
    26    22    23    3
    27    19    20    1
    28    20    21    1
    29     4     7    1
    30     7     8    1
    31    27    28   ar
    32    28    24   ar
    33     8     1    1
    34    14     9    1
    35    21    19    1
    36    17    18    1
@<TRIPOS>MOLECULE
*****
 33 36 0 0 0
SMALL
GASTEIGER

@<TRIPOS>ATOM
      1 N          63.7661   90.8304   12.0819 N.pl3   1  UNL1       -0.2847
      2 C          63.5930   90.3037   10.6881 C.3     1  UNL1        0.1141
      3 C          62.4506   89.3853   10.3699 C.3     1  UNL1        0.1149
      4 N          61.4812   88.9936   11.4455 N.am    1  UNL1       -0.2760
      5 C          60.3386   88.0752   11.1273 C.2     1  UNL1        0.2257
      6 O          59.3692   87.6835   12.2028 O.2     1  UNL1       -0.2749
      7 C          61.6542   89.5203   12.8393 C.3     1  UNL1        0.1149
      8 C          62.7967   90.4387   13.1574 C.3     1  UNL1        0.1141
      9 C          60.1656   87.5485    9.7335 C.3     1  UNL1        0.0853
     10 C          59.1556   88.1718    8.8162 C.3     1  UNL1        0.0096
     11 C          58.9825   87.6450    7.4224 C.3     1  UNL1        0.0005
     12 C          59.8195   86.4951    6.9459 C.3     1  UNL1        0.0005
     13 C          60.8295   85.8718    7.8632 C.3     1  UNL1        0.0096
     14 C          61.0025   86.3985    9.2570 C.3     1  UNL1        0.0851
     15 C          62.0125   85.7752   10.1743 C.2     1  UNL1        0.2231
     16 O          63.2625   85.1666    9.6109 O.2     1  UNL1       -0.2751
     17 N          61.7726   85.7605   11.6548 N.am    1  UNL1       -0.2959
     18 H          60.9522   86.1599   12.0246 H       1  UNL1        0.1502
     19 C          62.7826   85.1372   12.5721 C.3     1  UNL1        0.1364
     20 C          63.8662   85.0171   13.6023 C.3     1  UNL1        0.0353
     21 C          63.3454   86.3696   13.2158 C.3     1  UNL1        0.0353
     22 C          62.5706   83.6883   12.2471 C.1     1  UNL1        0.0896
     23 N          62.3585   82.2394   11.9220 N.1     1  UNL1       -0.1943
     24 C          66.8103   92.7681   13.5116 C.ar    1  UNL1        0.0415
     25 C          66.5232   93.5562   12.2680 C.ar    1  UNL1        0.1040
     26 N          65.3479   92.9262   11.5811 N.ar    1  UNL1       -0.2228
     27 C          64.9086   91.7488   12.4001 C.ar    1  UNL1        0.1629
     28 S          65.8125   91.6511   13.5932 S.2     1  UNL1       -0.0549
     29 C          68.8352   92.1702   13.7180 C.3     1  UNL1        0.0202
     30 C          67.9034   93.0478   14.5000 C.3     1  UNL1        0.1051
     31 C          66.9716   93.9255   15.2820 C.3     1  UNL1        0.0202
     32 C          68.9965   93.3276   15.4884 C.1     1  UNL1        0.0758
     33 N          70.0895   93.6074   16.4768 N.1     1  UNL1       -0.1956
@<TRIPOS>BOND
     1    29    30    1
     2    30    31    1
     3    30    32    1
     4    32    33    3
     5    30    24    1
     6    24    25   ar
     7    25    26   ar
     8    26    27   ar
     9    27     1    1
    10     1     2    1
    11     2     3    1
    12     3     4    1
    13     4     5   am
    14     5     6    2
    15     9     5    1
    16     9    10    1
    17    10    11    1
    18    11    12    1
    19    12    13    1
    20    13    14    1
    21    14    15    1
    22    15    16    2
    23    15    17   am
    24    17    19    1
    25    19    22    1
    26    22    23    3
    27    19    20    1
    28    20    21    1
    29     4     7    1
    30     7     8    1
    31    27    28   ar
    32    28    24   ar
    33     8     1    1
    34    14     9    1
    35    21    19    1
    36    17    18    1
@<TRIPOS>MOLECULE
*****
 33 36 0 0 0
SMALL
GASTEIGER

@<TRIPOS>ATOM
      1 N          63.0414   86.9896   12.1967 N.pl3   1  UNL1       -0.2847
      2 C          63.9461   87.4639   13.2951 C.3     1  UNL1        0.1141
      3 C          64.2223   88.9290   13.4590 C.3     1  UNL1        0.1149
      4 N          63.5938   89.9199   12.5246 N.am    1  UNL1       -0.2760
      5 C          63.8700   91.3852   12.6886 C.2     1  UNL1        0.2257
      6 O          63.2415   92.3760   11.7542 O.2     1  UNL1       -0.2749
      7 C          62.6890   89.4456   11.4263 C.3     1  UNL1        0.1149
      8 C          62.4128   87.9804   11.2623 C.3     1  UNL1        0.1141
      9 C          64.7747   91.8595   13.7870 C.3     1  UNL1        0.0853
     10 C          64.4838   91.4886   15.2110 C.3     1  UNL1        0.0096
     11 C          65.3886   91.9630   16.3094 C.3     1  UNL1        0.0005
     12 C          66.5843   92.8081   15.9837 C.3     1  UNL1        0.0005
     13 C          66.8752   93.1790   14.5597 C.3     1  UNL1        0.0096
     14 C          65.9705   92.7047   13.4613 C.3     1  UNL1        0.0851
     15 C          66.2614   93.0755   12.0373 C.2     1  UNL1        0.2231
     16 O          66.3066   92.0126   10.9798 O.2     1  UNL1       -0.2751
     17 N          66.5071   94.5091   11.6708 N.am    1  UNL1       -0.2959
     18 H          66.4774   95.2067   12.3649 H       1  UNL1        0.1502
     19 C          66.7980   94.8799   10.2468 C.3     1  UNL1        0.1364
     20 C          66.6911   95.5726    8.9206 C.3     1  UNL1        0.0353
     21 C          65.7537   95.9354   10.0339 C.3     1  UNL1        0.0353
     22 C          67.9433   93.9533    9.9651 C.1     1  UNL1        0.0896
     23 N          69.0886   93.0265    9.6834 N.1     1  UNL1       -0.1943
     24 C          62.5867   83.1451   12.4775 C.ar    1  UNL1        0.0415
     25 C          62.0933   83.3942   11.0830 C.ar    1  UNL1        0.1040
     26 N          62.2036   84.8646   10.8081 N.ar    1  UNL1       -0.2228
     27 C          62.7651   85.5243   12.0327 C.ar    1  UNL1        0.1629
     28 S          63.0019   84.4616   13.0644 S.2     1  UNL1       -0.0549
     29 C          63.0122   81.1598   11.8629 C.3     1  UNL1        0.0202
     30 C          62.6532   81.8133   13.1645 C.3     1  UNL1        0.1051
     31 C          62.2942   82.4667   14.4661 C.3     1  UNL1        0.0202
     32 C          62.7197   80.4815   13.8515 C.1     1  UNL1        0.0758
     33 N          62.7862   79.1497   14.5384 N.1     1  UNL1       -0.1956
@<TRIPOS>BOND
     1    29    30    1
     2    30    31    1
     3    30    32    1
     4    32    33    3
     5    30    24    1
     6    24    25   ar
     7    25    26   ar
     8    26    27   ar
     9    27     1    1
    10     1     2    1
    11     2     3    1
    12     3     4    1
    13     4     5   am
    14     5     6    2
    15     9     5    1
    16     9    10    1
    17    10    11    1
    18    11    12    1
    19    12    13    1
    20    13    14    1
    21    14    15    1
    22    15    16    2
    23    15    17   am
    24    17    19    1
    25    19    22    1
    26    22    23    3
    27    19    20    1
    28    20    21    1
    29     4     7    1
    30     7     8    1
    31    27    28   ar
    32    28    24   ar
    33     8     1    1
    34    14     9    1
    35    21    19    1
    36    17    18    1
@<TRIPOS>MOLECULE
*****
 33 36 0 0 0
SMALL
GASTEIGER

@<TRIPOS>ATOM
      1 N          63.2788   90.0237   13.3864 N.pl3   1  UNL1       -0.2847
      2 C          63.9994   88.9469   12.6306 C.3     1  UNL1        0.1141
      3 C          63.2466   88.0691   11.6752 C.3     1  UNL1        0.1149
      4 N          61.7733   88.2681   11.4756 N.am    1  UNL1       -0.2760
      5 C          61.0206   87.3902   10.5202 C.2     1  UNL1        0.2257
      6 O          59.5473   87.5892   10.3206 O.2     1  UNL1       -0.2749
      7 C          61.0528   89.3448   12.2315 C.3     1  UNL1        0.1149
      8 C          61.8055   90.2226   13.1869 C.3     1  UNL1        0.1141
      9 C          61.7412   86.3135    9.7643 C.3     1  UNL1        0.0853
     10 C          61.7620   86.3354    8.2646 C.3     1  UNL1        0.0096
     11 C          62.4826   85.2586    7.5087 C.3     1  UNL1        0.0005
     12 C          63.1824   84.1600    8.2526 C.3     1  UNL1        0.0005
     13 C          63.1616   84.1381    9.7522 C.3     1  UNL1        0.0096
     14 C          62.4410   85.2148   10.5081 C.3     1  UNL1        0.0851
     15 C          62.4202   85.1929   12.0078 C.2     1  UNL1        0.2231
     16 O          61.2012   85.6581   12.7479 O.2     1  UNL1       -0.2751
     17 N          63.6184   84.7059   12.7675 N.am    1  UNL1       -0.2959
     18 H          64.4184   84.4006   12.2818 H       1  UNL1        0.1502
     19 C          63.5976   84.6840   14.2672 C.3     1  UNL1        0.1364
     20 C          63.8212   85.1151   15.6863 C.3     1  UNL1        0.0353
     21 C          64.2941   85.9807   14.5563 C.3     1  UNL1        0.0353
     22 C          62.8939   83.3797   14.4989 C.1     1  UNL1        0.0896
     23 N          62.1903   82.0755   14.7306 N.1     1  UNL1       -0.1943
     24 C          65.7577   92.2964   15.3243 C.ar    1  UNL1        0.0415
     25 C          64.6218   92.2083   16.3001 C.ar    1  UNL1        0.1040
     26 N          63.5550   91.3462   15.6929 N.ar    1  UNL1       -0.2228
     27 C          64.0315   90.9015   14.3419 C.ar    1  UNL1        0.1629
     28 S          65.3928   91.4888   14.1141 S.2     1  UNL1       -0.0549
     29 C          67.3536   92.2105   16.7192 C.3     1  UNL1        0.0202
     30 C          67.0342   93.0584   15.5237 C.3     1  UNL1        0.1051
     31 C          66.7149   93.9064   14.3283 C.3     1  UNL1        0.0202
     32 C          68.3108   93.8204   15.7232 C.1     1  UNL1        0.0758
     33 N          69.5873   94.5824   15.9226 N.1     1  UNL1       -0.1956
@<TRIPOS>BOND
     1    29    30    1
     2    30    31    1
     3    30    32    1
     4    32    33    3
     5    30    24    1
     6    24    25   ar
     7    25    26   ar
     8    26    27   ar
     9    27     1    1
    10     1     2    1
    11     2     3    1
    12     3     4    1
    13     4     5   am
    14     5     6    2
    15     9     5    1
    16     9    10    1
    17    10    11    1
    18    11    12    1
    19    12    13    1
    20    13    14    1
    21    14    15    1
    22    15    16    2
    23    15    17   am
    24    17    19    1
    25    19    22    1
    26    22    23    3
    27    19    20    1
    28    20    21    1
    29     4     7    1
    30     7     8    1
    31    27    28   ar
    32    28    24   ar
    33     8     1    1
    34    14     9    1
    35    21    19    1
    36    17    18    1
