@<TRIPOS>MOLECULE
*****
 45 48 0 0 0
SMALL
GASTEIGER

@<TRIPOS>ATOM
      1 C          63.3270   88.3536   13.4421 C.ar    1  UNL1        0.0759
      2 C          64.0350   87.0421   13.6111 C.ar    1  UNL1        0.0848
      3 N          63.5954   85.8452   12.8209 N.ar    1  UNL1       -0.2754
      4 C          62.4479   85.9599   11.8617 C.ar    1  UNL1        0.3341
      5 O          62.0084   84.7631   11.0716 O.2     1  UNL1       -0.2462
      6 N          61.7399   87.2715   11.6927 N.ar    1  UNL1       -0.2470
      7 C          62.1795   88.4683   12.4829 C.ar    1  UNL1        0.2657
      8 O          61.4715   89.7799   12.3139 O.2     1  UNL1       -0.2668
      9 C          64.9168   91.8776   14.3387 C.ar    1  UNL1        0.1660
     10 C          64.6456   91.9442   15.8124 C.ar    1  UNL1        0.0392
     11 C          63.9349   90.8140   16.4961 C.ar    1  UNL1        0.0033
     12 C          63.4954   89.6171   15.7060 C.ar    1  UNL1        0.0026
     13 C          63.7665   89.5505   14.2322 C.ar    1  UNL1        0.0366
     14 C          64.4773   90.6808   13.5486 C.ar    1  UNL1        0.1739
     15 F          64.7484   90.6141   12.0747 F       1  UNL1       -0.2010
     16 C          66.8010   93.6663   14.3178 C.3     1  UNL1        0.2526
     17 O          65.6275   93.0079   13.6550 O.3     1  UNL1       -0.4692
     18 C          64.3034   84.5336   12.9899 C.3     1  UNL1        0.1408
     19 C          63.5128   83.2646   13.1103 C.ar    1  UNL1        0.0451
     20 C          63.5448   82.2532   12.0031 C.ar    1  UNL1        0.1392
     21 F          64.3673   82.5108   10.7754 F       1  UNL1       -0.2044
     22 C          62.7542   80.9842   12.1234 C.ar    1  UNL1        0.0295
     23 C          61.9316   80.7265   13.3510 C.ar    1  UNL1        0.0036
     24 C          61.8997   81.7379   14.4583 C.ar    1  UNL1        0.0182
     25 C          62.6903   83.0069   14.3379 C.ar    1  UNL1        0.1057
     26 S          62.6584   84.0184   15.4452 S.O2    1  UNL1        0.0103
     27 C          62.6264   85.0297   16.5525 C.3     1  UNL1        0.1816
     28 O          61.3949   84.5968   14.8803 O.2     1  UNL1       -0.1686
     29 O          63.9218   83.4399   16.0101 O.2     1  UNL1       -0.1686
     30 C          60.5924   87.3862   10.7336 C.3     1  UNL1        0.1337
     31 C          60.8522   87.6704    9.2839 C.3     1  UNL1        0.1000
     32 C          61.2519   86.5573    8.3612 C.ar    1  UNL1       -0.0061
     33 C          62.6674   86.0611    8.3538 C.ar    1  UNL1       -0.0029
     34 C          63.0671   84.9480    7.4312 C.ar    1  UNL1       -0.0003
     35 C          62.0513   84.3311    6.5160 C.ar    1  UNL1       -0.0000
     36 C          60.6357   84.8273    6.5234 C.ar    1  UNL1       -0.0003
     37 C          60.2360   85.9404    7.4460 C.ar    1  UNL1       -0.0029
     38 N          60.7123   89.0678    8.7567 N.3     1  UNL1       -0.2935
     39 H          61.4802   89.2136    8.1015 H       1  UNL1        0.1236
     40 C          59.4554   89.4803    8.0495 C.3     1  UNL1        0.0692
     41 C          59.3373   89.3022    6.5649 C.3     1  UNL1        0.0230
     42 C          59.6670   90.4398    5.6444 C.3     1  UNL1        0.0431
     43 C          58.5863   91.3774    5.1938 C.2     1  UNL1        0.0504
     44 O          58.9467   92.6823    4.5478 O.co2   1  UNL1       -0.5492
     45 O          57.1451   91.0101    5.3893 O.co2   1  UNL1       -0.5492
@<TRIPOS>UNITY_ATOM_ATTR
44 1
charge -1
@<TRIPOS>BOND
     1    16    17    1
     2    17     9    1
     3     9    10   ar
     4    10    11   ar
     5    11    12   ar
     6    12    13   ar
     7    13     1    1
     8     1     2   ar
     9     2     3   ar
    10     3    18    1
    11    18    19    1
    12    19    20   ar
    13    20    21    1
    14    20    22   ar
    15    22    23   ar
    16    23    24   ar
    17    24    25   ar
    18    25    26    1
    19    26    27    1
    20    26    28    2
    21    26    29    2
    22     3     4   ar
    23     4     5    2
    24     4     6   ar
    25     6    30    1
    26    31    30    1
    27    31    38    1
    28    38    40    1
    29    40    41    1
    30    41    42    1
    31    42    43    1
    32    43    44   ar
    33    43    45   ar
    34    31    32    1
    35    32    33   ar
    36    33    34   ar
    37    34    35   ar
    38    35    36   ar
    39    36    37   ar
    40     6     7   ar
    41     7     8    2
    42    13    14   ar
    43    14    15    1
    44    14     9   ar
    45     7     1   ar
    46    25    19   ar
    47    37    32   ar
    48    38    39    1
@<TRIPOS>MOLECULE
*****
 45 48 0 0 0
SMALL
GASTEIGER

@<TRIPOS>ATOM
      1 C          63.8816   90.3909   12.0762 C.ar    1  UNL1        0.0759
      2 C          64.4024   89.3019   12.9666 C.ar    1  UNL1        0.0848
      3 N          63.6517   88.0089   13.0877 N.ar    1  UNL1       -0.2754
      4 C          62.3802   87.8050   12.3184 C.ar    1  UNL1        0.3341
      5 O          61.6295   86.5120   12.4395 O.2     1  UNL1       -0.2462
      6 N          61.8594   88.8941   11.4281 N.ar    1  UNL1       -0.2470
      7 C          62.6101   90.1870   11.3070 C.ar    1  UNL1        0.2657
      8 O          62.0893   91.2761   10.4166 O.2     1  UNL1       -0.2668
      9 C          65.9873   93.6102   13.0521 C.ar    1  UNL1        0.1660
     10 C          66.1336   94.2699   11.7129 C.ar    1  UNL1        0.0392
     11 C          65.5293   93.6366   10.4949 C.ar    1  UNL1        0.0033
     12 C          64.7787   92.3436   10.6159 C.ar    1  UNL1        0.0026
     13 C          64.6323   91.6840   11.9551 C.ar    1  UNL1        0.0366
     14 C          65.2366   92.3173   13.1732 C.ar    1  UNL1        0.1739
     15 F          65.0902   91.6576   14.5124 F       1  UNL1       -0.2010
     16 C          67.5788   93.4792   15.1014 C.3     1  UNL1        0.2526
     17 O          66.5916   94.2436   14.2702 O.3     1  UNL1       -0.4692
     18 C          64.1725   86.9199   13.9781 C.3     1  UNL1        0.1408
     19 C          63.6390   86.7715   15.3722 C.ar    1  UNL1        0.0451
     20 C          63.5401   87.9699   16.2688 C.ar    1  UNL1        0.1392
     21 F          63.9745   89.3167   15.7714 F       1  UNL1       -0.2044
     22 C          63.0067   87.8215   17.6629 C.ar    1  UNL1        0.0295
     23 C          62.5722   86.4748   18.1603 C.ar    1  UNL1        0.0036
     24 C          62.6712   85.2764   17.2637 C.ar    1  UNL1        0.0182
     25 C          63.2046   85.4248   15.8696 C.ar    1  UNL1        0.1057
     26 S          63.3035   84.2263   14.9729 S.O2    1  UNL1        0.0103
     27 C          63.4025   83.0279   14.0763 C.3     1  UNL1        0.1816
     28 O          64.7659   84.1124   15.2866 O.2     1  UNL1       -0.1686
     29 O          61.8412   84.3401   14.6593 O.2     1  UNL1       -0.1686
     30 C          60.5880   88.6901   10.6588 C.3     1  UNL1        0.1337
     31 C          60.6322   88.5142    9.1698 C.3     1  UNL1        0.1000
     32 C          61.1343   87.2293    8.5810 C.ar    1  UNL1       -0.0061
     33 C          60.2622   86.4391    7.6510 C.ar    1  UNL1       -0.0029
     34 C          60.7643   85.1541    7.0622 C.ar    1  UNL1       -0.0003
     35 C          62.1386   84.6594    7.4033 C.ar    1  UNL1       -0.0000
     36 C          63.0109   85.4496    8.3333 C.ar    1  UNL1       -0.0003
     37 C          62.5088   86.7345    8.9221 C.ar    1  UNL1       -0.0029
     38 N          60.1743   89.6233    8.2696 N.3     1  UNL1       -0.2935
     39 H          60.9985   89.9552    7.7686 H       1  UNL1        0.1236
     40 C          59.1161   89.3641    7.2387 C.3     1  UNL1        0.0692
     41 C          59.3826   89.6752    5.7957 C.3     1  UNL1        0.0230
     42 C          59.6513   91.0883    5.3704 C.3     1  UNL1        0.0431
     43 C          58.6134   91.8501    4.6006 C.2     1  UNL1        0.0504
     44 O          57.1786   91.8123    5.0363 O.co2   1  UNL1       -0.5492
     45 O          59.0104   92.6496    3.3951 O.co2   1  UNL1       -0.5492
@<TRIPOS>UNITY_ATOM_ATTR
44 1
charge -1
@<TRIPOS>BOND
     1    16    17    1
     2    17     9    1
     3     9    10   ar
     4    10    11   ar
     5    11    12   ar
     6    12    13   ar
     7    13     1    1
     8     1     2   ar
     9     2     3   ar
    10     3    18    1
    11    18    19    1
    12    19    20   ar
    13    20    21    1
    14    20    22   ar
    15    22    23   ar
    16    23    24   ar
    17    24    25   ar
    18    25    26    1
    19    26    27    1
    20    26    28    2
    21    26    29    2
    22     3     4   ar
    23     4     5    2
    24     4     6   ar
    25     6    30    1
    26    31    30    1
    27    31    38    1
    28    38    40    1
    29    40    41    1
    30    41    42    1
    31    42    43    1
    32    43    44   ar
    33    43    45   ar
    34    31    32    1
    35    32    33   ar
    36    33    34   ar
    37    34    35   ar
    38    35    36   ar
    39    36    37   ar
    40     6     7   ar
    41     7     8    2
    42    13    14   ar
    43    14    15    1
    44    14     9   ar
    45     7     1   ar
    46    25    19   ar
    47    37    32   ar
    48    38    39    1
@<TRIPOS>MOLECULE
*****
 45 48 0 0 0
SMALL
GASTEIGER

@<TRIPOS>ATOM
      1 C          63.7892   88.9339   14.0356 C.ar    1  UNL1        0.0759
      2 C          64.4329   90.2462   14.3721 C.ar    1  UNL1        0.0848
      3 N          64.6085   91.2899   13.3091 N.ar    1  UNL1       -0.2754
      4 C          64.1404   91.0212   11.9096 C.ar    1  UNL1        0.3341
      5 O          64.3159   92.0648   10.8466 O.2     1  UNL1       -0.2462
      6 N          63.4966   89.7087   11.5731 N.ar    1  UNL1       -0.2470
      7 C          63.3211   88.6651   12.6361 C.ar    1  UNL1        0.2657
      8 O          62.6773   87.3526   12.2997 O.2     1  UNL1       -0.2668
      9 C          63.8446   85.4277   15.8940 C.ar    1  UNL1        0.1660
     10 C          63.2626   85.8029   17.2246 C.ar    1  UNL1        0.0392
     11 C          62.8561   87.2217   17.4922 C.ar    1  UNL1        0.0033
     12 C          63.0316   88.2654   16.4292 C.ar    1  UNL1        0.0026
     13 C          63.6137   87.8902   15.0987 C.ar    1  UNL1        0.0366
     14 C          64.0202   86.4713   14.8311 C.ar    1  UNL1        0.1739
     15 F          64.6022   86.0962   13.5004 F       1  UNL1       -0.2010
     16 C          63.4339   83.1562   14.7017 C.3     1  UNL1        0.2526
     17 O          64.2511   84.0088   15.6264 O.3     1  UNL1       -0.4692
     18 C          65.2522   92.6023   13.6456 C.3     1  UNL1        0.1408
     19 C          66.5601   92.6298   14.3796 C.ar    1  UNL1        0.0451
     20 C          66.5778   92.6911   15.8782 C.ar    1  UNL1        0.1392
     21 F          65.2877   92.7247   16.6429 F       1  UNL1       -0.2044
     22 C          67.8857   92.7186   16.6123 C.ar    1  UNL1        0.0295
     23 C          69.1757   92.6849   15.8477 C.ar    1  UNL1        0.0036
     24 C          69.1579   92.6237   14.3491 C.ar    1  UNL1        0.0182
     25 C          67.8501   92.5962   13.6151 C.ar    1  UNL1        0.1057
     26 S          67.8324   92.5349   12.1164 S.O2    1  UNL1        0.0103
     27 C          67.8147   92.4737   10.6177 C.3     1  UNL1        0.1816
     28 O          68.7050   91.3155   12.1559 O.2     1  UNL1       -0.1686
     29 O          66.9598   93.7543   12.0768 O.2     1  UNL1       -0.1686
     30 C          63.0284   89.4399   10.1736 C.3     1  UNL1        0.1337
     31 C          61.5865   89.6419    9.8134 C.3     1  UNL1        0.1000
     32 C          60.8406   88.5700    9.0754 C.ar    1  UNL1       -0.0061
     33 C          59.7139   88.9375    8.1558 C.ar    1  UNL1       -0.0029
     34 C          58.9680   87.8656    7.4178 C.ar    1  UNL1       -0.0003
     35 C          59.3488   86.4262    7.5994 C.ar    1  UNL1       -0.0000
     36 C          60.4754   86.0585    8.5189 C.ar    1  UNL1       -0.0003
     37 C          61.2213   87.1305    9.2570 C.ar    1  UNL1       -0.0029
     38 N          60.8903   90.9158   10.1911 N.3     1  UNL1       -0.2935
     39 H          60.4441   91.2696    9.3449 H       1  UNL1        0.1236
     40 C          59.8409   90.9076   11.2629 C.3     1  UNL1        0.0692
     41 C          59.7910   89.7838   12.2550 C.3     1  UNL1        0.0230
     42 C          58.6581   88.8012   12.2189 C.3     1  UNL1        0.0431
     43 C          57.8662   88.5235   13.4622 C.2     1  UNL1        0.0504
     44 O          56.3965   88.2393   13.3674 O.co2   1  UNL1       -0.5492
     45 O          58.5441   88.5302   14.8003 O.co2   1  UNL1       -0.5492
@<TRIPOS>UNITY_ATOM_ATTR
44 1
charge -1
@<TRIPOS>BOND
     1    16    17    1
     2    17     9    1
     3     9    10   ar
     4    10    11   ar
     5    11    12   ar
     6    12    13   ar
     7    13     1    1
     8     1     2   ar
     9     2     3   ar
    10     3    18    1
    11    18    19    1
    12    19    20   ar
    13    20    21    1
    14    20    22   ar
    15    22    23   ar
    16    23    24   ar
    17    24    25   ar
    18    25    26    1
    19    26    27    1
    20    26    28    2
    21    26    29    2
    22     3     4   ar
    23     4     5    2
    24     4     6   ar
    25     6    30    1
    26    31    30    1
    27    31    38    1
    28    38    40    1
    29    40    41    1
    30    41    42    1
    31    42    43    1
    32    43    44   ar
    33    43    45   ar
    34    31    32    1
    35    32    33   ar
    36    33    34   ar
    37    34    35   ar
    38    35    36   ar
    39    36    37   ar
    40     6     7   ar
    41     7     8    2
    42    13    14   ar
    43    14    15    1
    44    14     9   ar
    45     7     1   ar
    46    25    19   ar
    47    37    32   ar
    48    38    39    1
@<TRIPOS>MOLECULE
*****
 45 48 0 0 0
SMALL
GASTEIGER

@<TRIPOS>ATOM
      1 C          63.0838   87.2237   12.6807 C.ar    1  UNL1        0.0759
      2 C          63.7618   88.5616   12.6967 C.ar    1  UNL1        0.0848
      3 N          63.1721   89.7105   11.9334 N.ar    1  UNL1       -0.2754
      4 C          61.9044   89.5213   11.1542 C.ar    1  UNL1        0.3341
      5 O          61.3147   90.6700   10.3910 O.2     1  UNL1       -0.2462
      6 N          61.2264   88.1833   11.1383 N.ar    1  UNL1       -0.2470
      7 C          61.8161   87.0346   11.9015 C.ar    1  UNL1        0.2657
      8 O          61.1381   85.6966   11.8856 O.2     1  UNL1       -0.2668
      9 C          64.4027   83.5836   13.5526 C.ar    1  UNL1        0.1660
     10 C          64.8528   83.7772   14.9703 C.ar    1  UNL1        0.0392
     11 C          64.7133   85.1197   15.6248 C.ar    1  UNL1        0.0033
     12 C          64.1236   86.2685   14.8616 C.ar    1  UNL1        0.0026
     13 C          63.6735   86.0749   13.4440 C.ar    1  UNL1        0.0366
     14 C          63.8131   84.7324   12.7895 C.ar    1  UNL1        0.1739
     15 F          63.3629   84.5388   11.3717 F       1  UNL1       -0.2010
     16 C          63.3500   81.3394   12.7746 C.3     1  UNL1        0.2526
     17 O          64.5423   82.2412   12.8981 O.3     1  UNL1       -0.4692
     18 C          63.8501   91.0484   11.9494 C.3     1  UNL1        0.1408
     19 C          64.5805   91.5044   13.1776 C.ar    1  UNL1        0.0451
     20 C          64.0500   91.1589   14.5374 C.ar    1  UNL1        0.1392
     21 F          62.7889   90.3574   14.6691 F       1  UNL1       -0.2044
     22 C          64.7805   91.6150   15.7656 C.ar    1  UNL1        0.0295
     23 C          66.0415   92.4165   15.6340 C.ar    1  UNL1        0.0036
     24 C          66.5720   92.7619   14.2742 C.ar    1  UNL1        0.0182
     25 C          65.8416   92.3059   13.0460 C.ar    1  UNL1        0.1057
     26 S          66.3722   92.6514   11.6861 S.O2    1  UNL1        0.0103
     27 C          66.9028   92.9968   10.3263 C.3     1  UNL1        0.1816
     28 O          67.6653   91.9671   12.0169 O.2     1  UNL1       -0.1686
     29 O          65.0790   93.3357   11.3553 O.2     1  UNL1       -0.1686
     30 C          59.9587   87.9942   10.3591 C.3     1  UNL1        0.1337
     31 C          60.0166   87.7516    8.8800 C.3     1  UNL1        0.1000
     32 C          60.9107   86.6802    8.3301 C.ar    1  UNL1       -0.0061
     33 C          62.3123   86.5359    8.8444 C.ar    1  UNL1       -0.0029
     34 C          63.2065   85.4644    8.2945 C.ar    1  UNL1       -0.0003
     35 C          62.6991   84.5372    7.2302 C.ar    1  UNL1       -0.0000
     36 C          61.2974   84.6815    6.7158 C.ar    1  UNL1       -0.0003
     37 C          60.4032   85.7529    7.2657 C.ar    1  UNL1       -0.0029
     38 N          59.1803   88.5806    7.9507 N.3     1  UNL1       -0.2935
     39 H          58.4423   89.0016    8.5151 H       1  UNL1        0.1236
     40 C          59.8104   89.6912    7.1637 C.3     1  UNL1        0.0692
     41 C          59.3551   89.9690    5.7618 C.3     1  UNL1        0.0230
     42 C          59.7415   91.2523    5.0880 C.3     1  UNL1        0.0431
     43 C          58.7065   92.0594    4.3619 C.2     1  UNL1        0.0504
     44 O          59.0496   92.7227    3.0610 O.co2   1  UNL1       -0.5492
     45 O          57.3285   92.2033    4.9367 O.co2   1  UNL1       -0.5492
@<TRIPOS>UNITY_ATOM_ATTR
44 1
charge -1
@<TRIPOS>BOND
     1    16    17    1
     2    17     9    1
     3     9    10   ar
     4    10    11   ar
     5    11    12   ar
     6    12    13   ar
     7    13     1    1
     8     1     2   ar
     9     2     3   ar
    10     3    18    1
    11    18    19    1
    12    19    20   ar
    13    20    21    1
    14    20    22   ar
    15    22    23   ar
    16    23    24   ar
    17    24    25   ar
    18    25    26    1
    19    26    27    1
    20    26    28    2
    21    26    29    2
    22     3     4   ar
    23     4     5    2
    24     4     6   ar
    25     6    30    1
    26    31    30    1
    27    31    38    1
    28    38    40    1
    29    40    41    1
    30    41    42    1
    31    42    43    1
    32    43    44   ar
    33    43    45   ar
    34    31    32    1
    35    32    33   ar
    36    33    34   ar
    37    34    35   ar
    38    35    36   ar
    39    36    37   ar
    40     6     7   ar
    41     7     8    2
    42    13    14   ar
    43    14    15    1
    44    14     9   ar
    45     7     1   ar
    46    25    19   ar
    47    37    32   ar
    48    38    39    1
@<TRIPOS>MOLECULE
*****
 45 48 0 0 0
SMALL
GASTEIGER

@<TRIPOS>ATOM
      1 C          63.8257   89.4942   13.7925 C.ar    1  UNL1        0.0759
      2 C          63.1043   89.2462   12.5010 C.ar    1  UNL1        0.0848
      3 N          63.2817   90.1909   11.3494 N.ar    1  UNL1       -0.2754
      4 C          64.1805   91.3836   11.4894 C.ar    1  UNL1        0.3341
      5 O          64.3580   92.3283   10.3378 O.2     1  UNL1       -0.2462
      6 N          64.9020   91.6316   12.7809 N.ar    1  UNL1       -0.2470
      7 C          64.7246   90.6869   13.9325 C.ar    1  UNL1        0.2657
      8 O          65.4460   90.9348   15.2240 O.2     1  UNL1       -0.2668
      9 C          63.7268   86.1386   15.9091 C.ar    1  UNL1        0.1660
     10 C          63.2936   86.6601   17.2471 C.ar    1  UNL1        0.0392
     11 C          63.0377   88.1263   17.4336 C.ar    1  UNL1        0.0033
     12 C          63.2151   89.0710   16.2821 C.ar    1  UNL1        0.0026
     13 C          63.6483   88.5495   14.9441 C.ar    1  UNL1        0.0366
     14 C          63.9042   87.0833   14.7576 C.ar    1  UNL1        0.1739
     15 F          64.3374   86.5618   13.4195 F       1  UNL1       -0.2010
     16 C          62.9467   83.8076   15.0678 C.3     1  UNL1        0.2526
     17 O          63.9827   84.6724   15.7226 O.3     1  UNL1       -0.4692
     18 C          62.5603   89.9429   10.0579 C.3     1  UNL1        0.1408
     19 C          61.7745   88.6794    9.8684 C.ar    1  UNL1        0.0451
     20 C          62.4153   87.4877    9.2209 C.ar    1  UNL1        0.1392
     21 F          63.8419   87.5595    8.7630 F       1  UNL1       -0.2044
     22 C          61.6295   86.2241    9.0314 C.ar    1  UNL1        0.0295
     23 C          60.2029   86.1522    9.4893 C.ar    1  UNL1        0.0036
     24 C          59.5622   87.3439   10.1368 C.ar    1  UNL1        0.0182
     25 C          60.3479   88.6075   10.3263 C.ar    1  UNL1        0.1057
     26 S          59.7071   89.7992   10.9738 S.O2    1  UNL1        0.0103
     27 C          59.0663   90.9909   11.6213 C.3     1  UNL1        0.1816
     28 O          59.7302   89.0928   12.2968 O.2     1  UNL1       -0.1686
     29 O          59.6840   90.5057    9.6508 O.2     1  UNL1       -0.1686
     30 C          65.8008   92.8242   12.9209 C.3     1  UNL1        0.1337
     31 C          66.8523   93.0965   11.8864 C.3     1  UNL1        0.1000
     32 C          66.7888   94.3495   11.0642 C.ar    1  UNL1       -0.0061
     33 C          66.1279   95.5770   11.6176 C.ar    1  UNL1       -0.0029
     34 C          66.0645   96.8300   10.7954 C.ar    1  UNL1       -0.0003
     35 C          66.6619   96.8555    9.4198 C.ar    1  UNL1       -0.0000
     36 C          67.3229   95.6279    8.8663 C.ar    1  UNL1       -0.0003
     37 C          67.3864   94.3749    9.6885 C.ar    1  UNL1       -0.0029
     38 N          67.9673   92.1158   11.6740 N.3     1  UNL1       -0.2935
     39 H          68.6849   92.5984   11.1332 H       1  UNL1        0.1236
     40 C          68.6569   91.4972   12.8537 C.3     1  UNL1        0.0692
     41 C          69.1649   92.3660   13.9659 C.3     1  UNL1        0.0230
     42 C          68.6639   92.1628   15.3651 C.3     1  UNL1        0.0431
     43 C          68.0034   93.2933   16.0969 C.2     1  UNL1        0.0504
     44 O          68.6972   94.6180   16.2139 O.co2   1  UNL1       -0.5492
     45 O          66.6490   93.0991   16.7118 O.co2   1  UNL1       -0.5492
@<TRIPOS>UNITY_ATOM_ATTR
44 1
charge -1
@<TRIPOS>BOND
     1    16    17    1
     2    17     9    1
     3     9    10   ar
     4    10    11   ar
     5    11    12   ar
     6    12    13   ar
     7    13     1    1
     8     1     2   ar
     9     2     3   ar
    10     3    18    1
    11    18    19    1
    12    19    20   ar
    13    20    21    1
    14    20    22   ar
    15    22    23   ar
    16    23    24   ar
    17    24    25   ar
    18    25    26    1
    19    26    27    1
    20    26    28    2
    21    26    29    2
    22     3     4   ar
    23     4     5    2
    24     4     6   ar
    25     6    30    1
    26    31    30    1
    27    31    38    1
    28    38    40    1
    29    40    41    1
    30    41    42    1
    31    42    43    1
    32    43    44   ar
    33    43    45   ar
    34    31    32    1
    35    32    33   ar
    36    33    34   ar
    37    34    35   ar
    38    35    36   ar
    39    36    37   ar
    40     6     7   ar
    41     7     8    2
    42    13    14   ar
    43    14    15    1
    44    14     9   ar
    45     7     1   ar
    46    25    19   ar
    47    37    32   ar
    48    38    39    1
@<TRIPOS>MOLECULE
*****
 45 48 0 0 0
SMALL
GASTEIGER

@<TRIPOS>ATOM
      1 C          63.5054   86.9328   13.2332 C.ar    1  UNL1        0.0759
      2 C          63.0832   87.1137   11.8053 C.ar    1  UNL1        0.0848
      3 N          62.9795   88.4921   11.2227 N.ar    1  UNL1       -0.2754
      4 C          63.2982   89.6895   12.0681 C.ar    1  UNL1        0.3341
      5 O          63.1946   91.0679   11.4855 O.2     1  UNL1       -0.2462
      6 N          63.7204   89.5085   13.4960 N.ar    1  UNL1       -0.2470
      7 C          63.8240   88.1302   14.0786 C.ar    1  UNL1        0.2657
      8 O          64.2462   87.9492   15.5065 O.2     1  UNL1       -0.2668
      9 C          62.9427   83.0434   13.7864 C.ar    1  UNL1        0.1660
     10 C          63.8162   82.7977   14.9808 C.ar    1  UNL1        0.0392
     11 C          64.5860   83.9303   15.5927 C.ar    1  UNL1        0.0033
     12 C          64.4824   85.3087   15.0102 C.ar    1  UNL1        0.0026
     13 C          63.6090   85.5544   13.8158 C.ar    1  UNL1        0.0366
     14 C          62.8391   84.4217   13.2039 C.ar    1  UNL1        0.1739
     15 F          61.9657   84.6675   12.0094 F       1  UNL1       -0.2010
     16 C          62.8090   81.0551   12.1194 C.3     1  UNL1        0.2526
     17 O          62.1729   81.9107   13.1745 O.3     1  UNL1       -0.4692
     18 C          62.5573   88.6730    9.7948 C.3     1  UNL1        0.1408
     19 C          61.4214   87.8653    9.2405 C.ar    1  UNL1        0.0451
     20 C          61.7011   86.6788    8.3665 C.ar    1  UNL1        0.1392
     21 F          63.1169   86.2999    8.0468 F       1  UNL1       -0.2044
     22 C          60.5652   85.8711    7.8122 C.ar    1  UNL1        0.0295
     23 C          59.1495   86.2500    8.1318 C.ar    1  UNL1        0.0036
     24 C          58.8697   87.4365    9.0058 C.ar    1  UNL1        0.0182
     25 C          60.0057   88.2442    9.5601 C.ar    1  UNL1        0.1057
     26 S          59.7258   89.4308   10.4341 S.O2    1  UNL1        0.0103
     27 C          59.4460   90.6173   11.3080 C.3     1  UNL1        0.1816
     28 O          59.7961   90.3300    9.2356 O.2     1  UNL1       -0.1686
     29 O          59.6556   88.5315   11.6325 O.2     1  UNL1       -0.1686
     30 C          64.0390   90.7060   14.3414 C.3     1  UNL1        0.1337
     31 C          64.9727   91.7608   13.8262 C.3     1  UNL1        0.1000
     32 C          66.2786   92.0106   14.5207 C.ar    1  UNL1       -0.0061
     33 C          66.2927   92.5612   15.9159 C.ar    1  UNL1       -0.0029
     34 C          67.5985   92.8110   16.6105 C.ar    1  UNL1       -0.0003
     35 C          68.8902   92.5103   15.9098 C.ar    1  UNL1       -0.0000
     36 C          68.8762   91.9597   14.5145 C.ar    1  UNL1       -0.0003
     37 C          67.5703   91.7099   13.8200 C.ar    1  UNL1       -0.0029
     38 N          64.6006   92.5658   12.6164 N.3     1  UNL1       -0.2935
     39 H          63.8569   93.2021   12.9035 H       1  UNL1        0.1236
     40 C          65.6374   93.3972   11.9208 C.3     1  UNL1        0.0692
     41 C          66.0042   93.1014   10.4968 C.3     1  UNL1        0.0230
     42 C          67.2693   92.3572   10.1873 C.3     1  UNL1        0.0431
     43 C          68.2734   92.9459    9.2411 C.2     1  UNL1        0.0504
     44 O          68.8855   92.0921    8.1704 O.co2   1  UNL1       -0.5492
     45 O          68.6654   94.3885    9.3656 O.co2   1  UNL1       -0.5492
@<TRIPOS>UNITY_ATOM_ATTR
44 1
charge -1
@<TRIPOS>BOND
     1    16    17    1
     2    17     9    1
     3     9    10   ar
     4    10    11   ar
     5    11    12   ar
     6    12    13   ar
     7    13     1    1
     8     1     2   ar
     9     2     3   ar
    10     3    18    1
    11    18    19    1
    12    19    20   ar
    13    20    21    1
    14    20    22   ar
    15    22    23   ar
    16    23    24   ar
    17    24    25   ar
    18    25    26    1
    19    26    27    1
    20    26    28    2
    21    26    29    2
    22     3     4   ar
    23     4     5    2
    24     4     6   ar
    25     6    30    1
    26    31    30    1
    27    31    38    1
    28    38    40    1
    29    40    41    1
    30    41    42    1
    31    42    43    1
    32    43    44   ar
    33    43    45   ar
    34    31    32    1
    35    32    33   ar
    36    33    34   ar
    37    34    35   ar
    38    35    36   ar
    39    36    37   ar
    40     6     7   ar
    41     7     8    2
    42    13    14   ar
    43    14    15    1
    44    14     9   ar
    45     7     1   ar
    46    25    19   ar
    47    37    32   ar
    48    38    39    1
@<TRIPOS>MOLECULE
*****
 45 48 0 0 0
SMALL
GASTEIGER

@<TRIPOS>ATOM
      1 C          63.8299   89.0143   14.0558 C.ar    1  UNL1        0.0759
      2 C          64.4628   87.6673   14.2429 C.ar    1  UNL1        0.0848
      3 N          63.9965   86.4994   13.4252 N.ar    1  UNL1       -0.2754
      4 C          62.8973   86.6785   12.4204 C.ar    1  UNL1        0.3341
      5 O          62.4309   85.5107   11.6027 O.2     1  UNL1       -0.2462
      6 N          62.2644   88.0256   12.2333 N.ar    1  UNL1       -0.2470
      7 C          62.7307   89.1934   13.0510 C.ar    1  UNL1        0.2657
      8 O          62.0978   90.5405   12.8639 O.2     1  UNL1       -0.2668
      9 C          65.8909   92.2072   15.1992 C.ar    1  UNL1        0.1660
     10 C          65.2289   92.5179   16.5088 C.ar    1  UNL1        0.0392
     11 C          64.1006   91.6607   17.0008 C.ar    1  UNL1        0.0033
     12 C          63.6343   90.4928   16.1832 C.ar    1  UNL1        0.0026
     13 C          64.2963   90.1822   14.8735 C.ar    1  UNL1        0.0366
     14 C          65.4246   91.0394   14.3816 C.ar    1  UNL1        0.1739
     15 F          66.0866   90.7287   13.0718 F       1  UNL1       -0.2010
     16 C          68.4375   92.6046   14.8719 C.3     1  UNL1        0.2526
     17 O          67.0193   93.0644   14.7072 O.3     1  UNL1       -0.4692
     18 C          64.6293   85.1524   13.6123 C.3     1  UNL1        0.1408
     19 C          63.7897   83.9118   13.5343 C.ar    1  UNL1        0.0451
     20 C          63.9407   82.9759   12.3720 C.ar    1  UNL1        0.1392
     21 F          64.9314   83.2804   11.2875 F       1  UNL1       -0.2044
     22 C          63.1010   81.7353   12.2940 C.ar    1  UNL1        0.0295
     23 C          62.1104   81.4308   13.3783 C.ar    1  UNL1        0.0036
     24 C          61.9594   82.3668   14.5406 C.ar    1  UNL1        0.0182
     25 C          62.7990   83.6073   14.6186 C.ar    1  UNL1        0.1057
     26 S          62.6480   84.5433   15.7810 S.O2    1  UNL1        0.0103
     27 C          62.4970   85.4793   16.9434 C.3     1  UNL1        0.1816
     28 O          64.0438   84.2184   16.2240 O.2     1  UNL1       -0.1686
     29 O          61.2522   84.8682   15.3381 O.2     1  UNL1       -0.1686
     30 C          61.1652   88.2048   11.2285 C.3     1  UNL1        0.1337
     31 C          61.4974   88.3748    9.7757 C.3     1  UNL1        0.1000
     32 C          61.5411   87.1788    8.8714 C.ar    1  UNL1       -0.0061
     33 C          62.8116   86.3950    8.7253 C.ar    1  UNL1       -0.0029
     34 C          62.8553   85.1991    7.8210 C.ar    1  UNL1       -0.0003
     35 C          61.6284   84.7870    7.0627 C.ar    1  UNL1       -0.0000
     36 C          60.3578   85.5708    7.2088 C.ar    1  UNL1       -0.0003
     37 C          60.3142   86.7667    8.1131 C.ar    1  UNL1       -0.0029
     38 N          61.7861   89.7408    9.2272 N.3     1  UNL1       -0.2935
     39 H          60.9149   90.0867    8.8249 H       1  UNL1        0.1236
     40 C          62.3028   90.8189   10.1330 C.3     1  UNL1        0.0692
     41 C          63.7360   91.2520   10.0418 C.3     1  UNL1        0.0230
     42 C          64.2651   92.2963   10.9796 C.3     1  UNL1        0.0431
     43 C          65.5416   93.0156   10.6581 C.2     1  UNL1        0.0504
     44 O          65.6029   94.5115   10.7494 O.co2   1  UNL1       -0.5492
     45 O          66.7567   92.2389   10.2454 O.co2   1  UNL1       -0.5492
@<TRIPOS>UNITY_ATOM_ATTR
44 1
charge -1
@<TRIPOS>BOND
     1    16    17    1
     2    17     9    1
     3     9    10   ar
     4    10    11   ar
     5    11    12   ar
     6    12    13   ar
     7    13     1    1
     8     1     2   ar
     9     2     3   ar
    10     3    18    1
    11    18    19    1
    12    19    20   ar
    13    20    21    1
    14    20    22   ar
    15    22    23   ar
    16    23    24   ar
    17    24    25   ar
    18    25    26    1
    19    26    27    1
    20    26    28    2
    21    26    29    2
    22     3     4   ar
    23     4     5    2
    24     4     6   ar
    25     6    30    1
    26    31    30    1
    27    31    38    1
    28    38    40    1
    29    40    41    1
    30    41    42    1
    31    42    43    1
    32    43    44   ar
    33    43    45   ar
    34    31    32    1
    35    32    33   ar
    36    33    34   ar
    37    34    35   ar
    38    35    36   ar
    39    36    37   ar
    40     6     7   ar
    41     7     8    2
    42    13    14   ar
    43    14    15    1
    44    14     9   ar
    45     7     1   ar
    46    25    19   ar
    47    37    32   ar
    48    38    39    1
@<TRIPOS>MOLECULE
*****
 45 48 0 0 0
SMALL
GASTEIGER

@<TRIPOS>ATOM
      1 C          64.8293   91.9387   10.9344 C.ar    1  UNL1        0.0759
      2 C          63.8244   91.2670   10.0461 C.ar    1  UNL1        0.0848
      3 N          62.6544   90.5466   10.6479 N.ar    1  UNL1       -0.2754
      4 C          62.4893   90.4978   12.1380 C.ar    1  UNL1        0.3341
      5 O          61.3194   89.7774   12.7398 O.2     1  UNL1       -0.2462
      6 N          63.4943   91.1695   13.0263 N.ar    1  UNL1       -0.2470
      7 C          64.6642   91.8899   12.4245 C.ar    1  UNL1        0.2657
      8 O          65.6692   92.5616   13.3128 O.2     1  UNL1       -0.2668
      9 C          67.0954   94.8579    9.4876 C.ar    1  UNL1        0.1660
     10 C          68.3391   94.1000    9.1290 C.ar    1  UNL1        0.0392
     11 C          68.4130   92.6217    9.3722 C.ar    1  UNL1        0.0033
     12 C          67.2431   91.9013    9.9740 C.ar    1  UNL1        0.0026
     13 C          65.9993   92.6591   10.3326 C.ar    1  UNL1        0.0366
     14 C          65.9254   94.1374   10.0894 C.ar    1  UNL1        0.1739
     15 F          64.6816   94.8953   10.4480 F       1  UNL1       -0.2010
     16 C          66.5573   96.8555    7.9160 C.3     1  UNL1        0.2526
     17 O          67.0215   96.3362    9.2445 O.3     1  UNL1       -0.4692
     18 C          61.6495   89.8749    9.7596 C.3     1  UNL1        0.1408
     19 C          61.5439   88.3787    9.7439 C.ar    1  UNL1        0.0451
     20 C          62.3887   87.5574   10.6722 C.ar    1  UNL1        0.1392
     21 F          63.3391   88.2323   11.6163 F       1  UNL1       -0.2044
     22 C          62.2831   86.0613   10.6565 C.ar    1  UNL1        0.0295
     23 C          61.3327   85.3864    9.7124 C.ar    1  UNL1        0.0036
     24 C          60.4879   86.2077    8.7842 C.ar    1  UNL1        0.0182
     25 C          60.5935   87.7039    8.7999 C.ar    1  UNL1        0.1057
     26 S          59.7486   88.5252    7.8715 S.O2    1  UNL1        0.0103
     27 C          58.9038   89.3464    6.9432 C.3     1  UNL1        0.1816
     28 O          59.6479   87.3599    6.9324 O.2     1  UNL1       -0.1686
     29 O          59.8494   89.6904    8.8107 O.2     1  UNL1       -0.1686
     30 C          63.3292   91.1207   14.5164 C.3     1  UNL1        0.1337
     31 C          64.2719   90.3034   15.3490 C.3     1  UNL1        0.1000
     32 C          63.9250   88.8877   15.7032 C.ar    1  UNL1       -0.0061
     33 C          63.1156   88.5989   16.9326 C.ar    1  UNL1       -0.0029
     34 C          62.7688   87.1832   17.2868 C.ar    1  UNL1       -0.0003
     35 C          63.2312   86.0563   16.4116 C.ar    1  UNL1       -0.0000
     36 C          64.0407   86.3450   15.1821 C.ar    1  UNL1       -0.0003
     37 C          64.3875   87.7607   14.8279 C.ar    1  UNL1       -0.0029
     38 N          65.5615   90.9018   15.8276 N.3     1  UNL1       -0.2935
     39 H          66.2265   90.8219   15.0583 H       1  UNL1        0.1236
     40 C          65.6010   92.3289   16.2876 C.3     1  UNL1        0.0692
     41 C          66.9159   93.0388   16.4178 C.3     1  UNL1        0.0230
     42 C          68.1925   92.3169   16.1023 C.3     1  UNL1        0.0431
     43 C          69.0652   92.7926   14.9790 C.2     1  UNL1        0.0504
     44 O          68.9402   92.1737   13.6183 O.co2   1  UNL1       -0.5492
     45 O          70.0629   93.8874   15.2162 O.co2   1  UNL1       -0.5492
@<TRIPOS>UNITY_ATOM_ATTR
44 1
charge -1
@<TRIPOS>BOND
     1    16    17    1
     2    17     9    1
     3     9    10   ar
     4    10    11   ar
     5    11    12   ar
     6    12    13   ar
     7    13     1    1
     8     1     2   ar
     9     2     3   ar
    10     3    18    1
    11    18    19    1
    12    19    20   ar
    13    20    21    1
    14    20    22   ar
    15    22    23   ar
    16    23    24   ar
    17    24    25   ar
    18    25    26    1
    19    26    27    1
    20    26    28    2
    21    26    29    2
    22     3     4   ar
    23     4     5    2
    24     4     6   ar
    25     6    30    1
    26    31    30    1
    27    31    38    1
    28    38    40    1
    29    40    41    1
    30    41    42    1
    31    42    43    1
    32    43    44   ar
    33    43    45   ar
    34    31    32    1
    35    32    33   ar
    36    33    34   ar
    37    34    35   ar
    38    35    36   ar
    39    36    37   ar
    40     6     7   ar
    41     7     8    2
    42    13    14   ar
    43    14    15    1
    44    14     9   ar
    45     7     1   ar
    46    25    19   ar
    47    37    32   ar
    48    38    39    1
@<TRIPOS>MOLECULE
*****
 45 48 0 0 0
SMALL
GASTEIGER

@<TRIPOS>ATOM
      1 C          63.7581   88.7505   14.0041 C.ar    1  UNL1        0.0759
      2 C          64.3598   90.0894   14.3130 C.ar    1  UNL1        0.0848
      3 N          64.4950   91.1187   13.2303 N.ar    1  UNL1       -0.2754
      4 C          64.0284   90.8092   11.8387 C.ar    1  UNL1        0.3341
      5 O          64.1635   91.8384   10.7560 O.2     1  UNL1       -0.2462
      6 N          63.4267   89.4703   11.5298 N.ar    1  UNL1       -0.2470
      7 C          63.2915   88.4410   12.6125 C.ar    1  UNL1        0.2657
      8 O          62.6898   87.1021   12.3037 O.2     1  UNL1       -0.2668
      9 C          63.9052   85.2741   15.9128 C.ar    1  UNL1        0.1660
     10 C          63.3526   85.6625   17.2521 C.ar    1  UNL1        0.0392
     11 C          62.9352   87.0802   17.5088 C.ar    1  UNL1        0.0033
     12 C          63.0704   88.1095   16.4261 C.ar    1  UNL1        0.0026
     13 C          63.6229   87.7212   15.0868 C.ar    1  UNL1        0.0366
     14 C          64.0403   86.3035   14.8302 C.ar    1  UNL1        0.1739
     15 F          64.5929   85.9151   13.4908 F       1  UNL1       -0.2010
     16 C          63.5311   83.0008   14.7121 C.3     1  UNL1        0.2526
     17 O          64.3226   83.8564   15.6561 O.3     1  UNL1       -0.4692
     18 C          65.0967   92.4576   13.5391 C.3     1  UNL1        0.1408
     19 C          66.3896   92.5424   14.2949 C.ar    1  UNL1        0.0451
     20 C          66.3806   92.5818   15.7943 C.ar    1  UNL1        0.1392
     21 F          65.0788   92.5364   16.5381 F       1  UNL1       -0.2044
     22 C          67.6736   92.6667   16.5501 C.ar    1  UNL1        0.0295
     23 C          68.9754   92.7121   15.8064 C.ar    1  UNL1        0.0036
     24 C          68.9843   92.6727   14.3070 C.ar    1  UNL1        0.0182
     25 C          67.6914   92.5878   13.5512 C.ar    1  UNL1        0.1057
     26 S          67.7004   92.5484   12.0517 S.O2    1  UNL1        0.0103
     27 C          67.7094   92.5090   10.5523 C.3     1  UNL1        0.1816
     28 O          68.5454   91.3097   12.0894 O.2     1  UNL1       -0.1686
     29 O          66.8554   93.7871   12.0140 O.2     1  UNL1       -0.1686
     30 C          62.9601   89.1607   10.1382 C.3     1  UNL1        0.1337
     31 C          61.5680   88.6508    9.9099 C.3     1  UNL1        0.1000
     32 C          60.4380   89.1483   10.7617 C.ar    1  UNL1       -0.0061
     33 C          59.6879   88.1950   11.6441 C.ar    1  UNL1       -0.0029
     34 C          58.5578   88.6925   12.4958 C.ar    1  UNL1       -0.0003
     35 C          58.1779   90.1432   12.4653 C.ar    1  UNL1       -0.0000
     36 C          58.9280   91.0965   11.5829 C.ar    1  UNL1       -0.0003
     37 C          60.0580   90.5991   10.7311 C.ar    1  UNL1       -0.0029
     38 N          61.3060   87.6434    8.8298 N.3     1  UNL1       -0.2935
     39 H          61.8448   87.9381    8.0154 H       1  UNL1        0.1236
     40 C          61.6261   86.1963    9.0603 C.3     1  UNL1        0.0692
     41 C          62.9838   85.6635    8.7103 C.3     1  UNL1        0.0230
     42 C          63.3023   84.2152    8.9362 C.3     1  UNL1        0.0431
     43 C          63.6142   83.7225   10.3183 C.2     1  UNL1        0.0504
     44 O          62.6382   83.9514   11.4341 O.co2   1  UNL1       -0.5492
     45 O          64.9020   83.0009   10.5845 O.co2   1  UNL1       -0.5492
@<TRIPOS>UNITY_ATOM_ATTR
44 1
charge -1
@<TRIPOS>BOND
     1    16    17    1
     2    17     9    1
     3     9    10   ar
     4    10    11   ar
     5    11    12   ar
     6    12    13   ar
     7    13     1    1
     8     1     2   ar
     9     2     3   ar
    10     3    18    1
    11    18    19    1
    12    19    20   ar
    13    20    21    1
    14    20    22   ar
    15    22    23   ar
    16    23    24   ar
    17    24    25   ar
    18    25    26    1
    19    26    27    1
    20    26    28    2
    21    26    29    2
    22     3     4   ar
    23     4     5    2
    24     4     6   ar
    25     6    30    1
    26    31    30    1
    27    31    38    1
    28    38    40    1
    29    40    41    1
    30    41    42    1
    31    42    43    1
    32    43    44   ar
    33    43    45   ar
    34    31    32    1
    35    32    33   ar
    36    33    34   ar
    37    34    35   ar
    38    35    36   ar
    39    36    37   ar
    40     6     7   ar
    41     7     8    2
    42    13    14   ar
    43    14    15    1
    44    14     9   ar
    45     7     1   ar
    46    25    19   ar
    47    37    32   ar
    48    38    39    1
