@<TRIPOS>MOLECULE
*****
 24 27 0 0 0
SMALL
GASTEIGER

@<TRIPOS>ATOM
      1 N          60.8583   87.5196    9.9899 N.pl3   1  UNL1       -0.3024
      2 CL         63.0326   83.5661   12.5673 Cl      1  UNL1       -0.0822
      3 C          62.8477   84.3447   11.2986 C.ar    1  UNL1        0.0589
      4 C          63.5652   83.9251   10.0498 C.ar    1  UNL1        0.0115
      5 C          63.3803   84.7037    8.7811 C.ar    1  UNL1        0.0021
      6 C          62.4780   85.9019    8.7611 C.ar    1  UNL1        0.0146
      7 C          61.7606   86.3214   10.0099 C.ar    1  UNL1        0.0490
      8 C          61.9455   85.5428   11.2786 C.ar    1  UNL1        0.0259
      9 C          59.9521   87.7566    8.8184 C.3     1  UNL1        0.1045
     10 C          59.6612   88.9230    7.9214 C.3     1  UNL1        0.0900
     11 N          58.6703   88.0917    7.1616 N.3     1  UNL1       -0.2946
     12 C          58.9612   86.9252    8.0587 C.3     1  UNL1        0.0900
     13 H          58.9186   87.9375    6.1844 H       1  UNL1        0.1233
     14 C          60.8624   88.4807   11.1415 C.3     1  UNL1        0.1177
     15 C          61.9774   89.4738   11.2856 C.ar    1  UNL1       -0.0024
     16 C          62.2895   90.4191   10.1635 C.ar    1  UNL1       -0.0026
     17 C          63.4044   91.4121   10.3076 C.ar    1  UNL1       -0.0003
     18 C          64.2072   91.4600   11.5738 C.ar    1  UNL1       -0.0000
     19 C          65.3221   92.4530   11.7179 C.ar    1  UNL1       -0.0000
     20 C          66.1249   92.5008   12.9840 C.ar    1  UNL1       -0.0000
     21 C          65.8128   91.5556   14.1061 C.ar    1  UNL1       -0.0000
     22 C          64.6979   90.5625   13.9621 C.ar    1  UNL1       -0.0000
     23 C          63.8951   90.5147   12.6959 C.ar    1  UNL1       -0.0003
     24 C          62.7801   89.5216   12.5518 C.ar    1  UNL1       -0.0026
@<TRIPOS>BOND
     1     2     3    1
     2     3     4   ar
     3     4     5   ar
     4     5     6   ar
     5     6     7   ar
     6     7     1    1
     7     1    14    1
     8    14    15    1
     9    15    16   ar
    10    16    17   ar
    11    17    18   ar
    12    18    19   ar
    13    19    20   ar
    14    20    21   ar
    15    21    22   ar
    16    22    23   ar
    17    23    24   ar
    18     1     9    1
    19     9    10    1
    20    10    11    1
    21    11    12    1
    22     7     8   ar
    23     8     3   ar
    24    24    15   ar
    25    12     9    1
    26    23    18   ar
    27    11    13    1
@<TRIPOS>MOLECULE
*****
 24 27 0 0 0
SMALL
GASTEIGER

@<TRIPOS>ATOM
      1 N          63.5177   83.3759   12.7603 N.pl3   1  UNL1       -0.3024
      2 CL         60.7764   87.0525   10.3174 Cl      1  UNL1       -0.0822
      3 C          61.7901   85.9475   10.2799 C.ar    1  UNL1        0.0589
      4 C          62.4468   85.5758    8.9835 C.ar    1  UNL1        0.0115
      5 C          63.4604   84.4708    8.9460 C.ar    1  UNL1        0.0021
      6 C          63.8174   83.7375   10.2050 C.ar    1  UNL1        0.0146
      7 C          63.1607   84.1092   11.5013 C.ar    1  UNL1        0.0490
      8 C          62.1471   85.2142   11.5388 C.ar    1  UNL1        0.0259
      9 C          62.8629   82.0637   13.0753 C.3     1  UNL1        0.1045
     10 C          62.0260   81.5400   14.2046 C.3     1  UNL1        0.0900
     11 N          61.9368   80.2080   13.5208 N.3     1  UNL1       -0.2946
     12 C          62.7736   80.7317   12.3914 C.3     1  UNL1        0.0900
     13 H          60.9903   79.9419   13.2491 H       1  UNL1        0.1233
     14 C          64.5296   83.9549   13.7042 C.3     1  UNL1        0.1177
     15 C          64.1702   85.1352   14.5573 C.ar    1  UNL1       -0.0024
     16 C          63.5447   84.9243   15.9043 C.ar    1  UNL1       -0.0026
     17 C          63.1853   86.1045   16.7574 C.ar    1  UNL1       -0.0003
     18 C          63.4514   87.4957   16.2636 C.ar    1  UNL1       -0.0000
     19 C          63.0920   88.6760   17.1167 C.ar    1  UNL1       -0.0000
     20 C          63.3581   90.0671   16.6229 C.ar    1  UNL1       -0.0000
     21 C          63.9836   90.2780   15.2760 C.ar    1  UNL1       -0.0000
     22 C          64.3430   89.0978   14.4228 C.ar    1  UNL1       -0.0000
     23 C          64.0769   87.7066   14.9166 C.ar    1  UNL1       -0.0003
     24 C          64.4363   86.5263   14.0635 C.ar    1  UNL1       -0.0026
@<TRIPOS>BOND
     1     2     3    1
     2     3     4   ar
     3     4     5   ar
     4     5     6   ar
     5     6     7   ar
     6     7     1    1
     7     1    14    1
     8    14    15    1
     9    15    16   ar
    10    16    17   ar
    11    17    18   ar
    12    18    19   ar
    13    19    20   ar
    14    20    21   ar
    15    21    22   ar
    16    22    23   ar
    17    23    24   ar
    18     1     9    1
    19     9    10    1
    20    10    11    1
    21    11    12    1
    22     7     8   ar
    23     8     3   ar
    24    24    15   ar
    25    12     9    1
    26    23    18   ar
    27    11    13    1
@<TRIPOS>MOLECULE
*****
 24 27 0 0 0
SMALL
GASTEIGER

@<TRIPOS>ATOM
      1 N          65.9499   92.2531   13.0692 N.pl3   1  UNL1       -0.3024
      2 CL         68.7079   92.2793    8.6655 Cl      1  UNL1       -0.0822
      3 C          67.8678   93.0020    9.6765 C.ar    1  UNL1        0.0589
      4 C          67.5667   94.4604    9.4965 C.ar    1  UNL1        0.0115
      5 C          66.7266   95.1831   10.5075 C.ar    1  UNL1        0.0021
      6 C          66.1877   94.4473   11.6984 C.ar    1  UNL1        0.0146
      7 C          66.4888   92.9889   11.8783 C.ar    1  UNL1        0.0490
      8 C          67.3289   92.2663   10.8673 C.ar    1  UNL1        0.0259
      9 C          66.7078   92.2640   14.3636 C.3     1  UNL1        0.1045
     10 C          67.8656   91.4904   14.9213 C.3     1  UNL1        0.0900
     11 N          67.7796   92.2793   16.1941 N.3     1  UNL1       -0.2946
     12 C          66.6218   93.0529   15.6364 C.3     1  UNL1        0.0900
     13 H          68.6045   92.8468   16.3888 H       1  UNL1        0.1233
     14 C          64.6530   91.5065   12.9657 C.3     1  UNL1        0.1177
     15 C          64.2469   90.5546   14.0516 C.ar    1  UNL1       -0.0024
     16 C          63.6221   91.0765   15.3114 C.ar    1  UNL1       -0.0026
     17 C          63.2159   90.1247   16.3972 C.ar    1  UNL1       -0.0003
     18 C          63.4346   88.6509   16.2233 C.ar    1  UNL1       -0.0000
     19 C          63.0284   87.6991   17.3091 C.ar    1  UNL1       -0.0000
     20 C          63.2471   86.2254   17.1351 C.ar    1  UNL1       -0.0000
     21 C          63.8720   85.7035   15.8753 C.ar    1  UNL1       -0.0000
     22 C          64.2781   86.6553   14.7894 C.ar    1  UNL1       -0.0000
     23 C          64.0594   88.1290   14.9634 C.ar    1  UNL1       -0.0003
     24 C          64.4656   89.0809   13.8775 C.ar    1  UNL1       -0.0026
@<TRIPOS>BOND
     1     2     3    1
     2     3     4   ar
     3     4     5   ar
     4     5     6   ar
     5     6     7   ar
     6     7     1    1
     7     1    14    1
     8    14    15    1
     9    15    16   ar
    10    16    17   ar
    11    17    18   ar
    12    18    19   ar
    13    19    20   ar
    14    20    21   ar
    15    21    22   ar
    16    22    23   ar
    17    23    24   ar
    18     1     9    1
    19     9    10    1
    20    10    11    1
    21    11    12    1
    22     7     8   ar
    23     8     3   ar
    24    24    15   ar
    25    12     9    1
    26    23    18   ar
    27    11    13    1
@<TRIPOS>MOLECULE
*****
 24 27 0 0 0
SMALL
GASTEIGER

@<TRIPOS>ATOM
      1 N          61.1799   88.4602   10.9786 N.pl3   1  UNL1       -0.3024
      2 CL         62.9281   84.8705    7.6533 Cl      1  UNL1       -0.0822
      3 C          61.8262   85.7658    8.1374 C.ar    1  UNL1        0.0589
      4 C          60.4967   85.7617    7.4428 C.ar    1  UNL1        0.0115
      5 C          59.3948   86.6570    7.9269 C.ar    1  UNL1        0.0021
      6 C          59.6226   87.5565    9.1056 C.ar    1  UNL1        0.0146
      7 C          60.9521   87.5607    9.8000 C.ar    1  UNL1        0.0490
      8 C          62.0539   86.6653    9.3159 C.ar    1  UNL1        0.0259
      9 C          60.1226   89.4423   11.3880 C.3     1  UNL1        0.1045
     10 C          59.7320   90.8234   10.9522 C.3     1  UNL1        0.0900
     11 N          58.6273   90.8312   11.9668 N.3     1  UNL1       -0.2946
     12 C          59.0178   89.4500   12.4026 C.3     1  UNL1        0.0900
     13 H          57.6922   90.8919   11.5639 H       1  UNL1        0.1233
     14 C          62.4649   88.3776   11.7479 C.3     1  UNL1        0.1177
     15 C          63.3063   89.6050   11.9367 C.ar    1  UNL1       -0.0024
     16 C          63.4771   90.5781   10.8080 C.ar    1  UNL1       -0.0026
     17 C          64.3183   91.8055   10.9968 C.ar    1  UNL1       -0.0003
     18 C          64.9888   92.0599   12.3143 C.ar    1  UNL1       -0.0000
     19 C          65.8301   93.2873   12.5031 C.ar    1  UNL1       -0.0000
     20 C          66.5006   93.5417   13.8205 C.ar    1  UNL1       -0.0000
     21 C          66.3297   92.5686   14.9492 C.ar    1  UNL1       -0.0000
     22 C          65.4885   91.3412   14.7605 C.ar    1  UNL1       -0.0000
     23 C          64.8180   91.0868   13.4430 C.ar    1  UNL1       -0.0003
     24 C          63.9767   89.8594   13.2542 C.ar    1  UNL1       -0.0026
@<TRIPOS>BOND
     1     2     3    1
     2     3     4   ar
     3     4     5   ar
     4     5     6   ar
     5     6     7   ar
     6     7     1    1
     7     1    14    1
     8    14    15    1
     9    15    16   ar
    10    16    17   ar
    11    17    18   ar
    12    18    19   ar
    13    19    20   ar
    14    20    21   ar
    15    21    22   ar
    16    22    23   ar
    17    23    24   ar
    18     1     9    1
    19     9    10    1
    20    10    11    1
    21    11    12    1
    22     7     8   ar
    23     8     3   ar
    24    24    15   ar
    25    12     9    1
    26    23    18   ar
    27    11    13    1
@<TRIPOS>MOLECULE
*****
 24 27 0 0 0
SMALL
GASTEIGER

@<TRIPOS>ATOM
      1 N          61.1501   89.2697   10.1692 N.pl3   1  UNL1       -0.3024
      2 CL         63.2248   84.8426    8.4096 Cl      1  UNL1       -0.0822
      3 C          62.0900   85.8230    8.4410 C.ar    1  UNL1        0.0589
      4 C          60.8576   85.5702    7.6239 C.ar    1  UNL1        0.0115
      5 C          59.7228   86.5506    7.6553 C.ar    1  UNL1        0.0021
      6 C          59.8203   87.7838    8.5037 C.ar    1  UNL1        0.0146
      7 C          61.0526   88.0365    9.3208 C.ar    1  UNL1        0.0490
      8 C          62.1874   87.0561    9.2894 C.ar    1  UNL1        0.0259
      9 C          60.0513   89.6055   11.1334 C.3     1  UNL1        0.1045
     10 C          59.2721   90.8439   11.4641 C.3     1  UNL1        0.0900
     11 N          58.4972   90.0805   12.4969 N.3     1  UNL1       -0.2946
     12 C          59.2763   88.8421   12.1662 C.3     1  UNL1        0.0900
     13 H          57.4989   90.0094   12.3001 H       1  UNL1        0.1233
     14 C          62.3466   90.1670   10.0535 C.3     1  UNL1        0.1177
     15 C          63.1982   90.4405   11.2576 C.ar    1  UNL1       -0.0024
     16 C          63.1743   89.4967   12.4232 C.ar    1  UNL1       -0.0026
     17 C          64.0258   89.7702   13.6274 C.ar    1  UNL1       -0.0003
     18 C          64.9015   90.9875   13.6659 C.ar    1  UNL1       -0.0000
     19 C          65.7531   91.2610   14.8701 C.ar    1  UNL1       -0.0000
     20 C          66.6286   92.4783   14.9086 C.ar    1  UNL1       -0.0000
     21 C          66.6526   93.4221   13.7430 C.ar    1  UNL1       -0.0000
     22 C          65.8010   93.1487   12.5389 C.ar    1  UNL1       -0.0000
     23 C          64.9254   91.9314   12.5004 C.ar    1  UNL1       -0.0003
     24 C          64.0738   91.6578   11.2962 C.ar    1  UNL1       -0.0026
@<TRIPOS>BOND
     1     2     3    1
     2     3     4   ar
     3     4     5   ar
     4     5     6   ar
     5     6     7   ar
     6     7     1    1
     7     1    14    1
     8    14    15    1
     9    15    16   ar
    10    16    17   ar
    11    17    18   ar
    12    18    19   ar
    13    19    20   ar
    14    20    21   ar
    15    21    22   ar
    16    22    23   ar
    17    23    24   ar
    18     1     9    1
    19     9    10    1
    20    10    11    1
    21    11    12    1
    22     7     8   ar
    23     8     3   ar
    24    24    15   ar
    25    12     9    1
    26    23    18   ar
    27    11    13    1
@<TRIPOS>MOLECULE
*****
 24 27 0 0 0
SMALL
GASTEIGER

@<TRIPOS>ATOM
      1 N          61.8594   87.0641    9.2894 N.pl3   1  UNL1       -0.3024
      2 CL         63.7795   89.0409   13.6946 Cl      1  UNL1       -0.0822
      3 C          63.1740   89.2402   12.3368 C.ar    1  UNL1        0.0589
      4 C          62.9231   90.6273   11.8237 C.ar    1  UNL1        0.0115
      5 C          62.3176   90.8266   10.4659 C.ar    1  UNL1        0.0021
      6 C          61.9630   89.6388    9.6211 C.ar    1  UNL1        0.0146
      7 C          62.2140   88.2518   10.1342 C.ar    1  UNL1        0.0490
      8 C          62.8195   88.0525   11.4920 C.ar    1  UNL1        0.0259
      9 C          60.4742   86.9281    8.7302 C.3     1  UNL1        0.1045
     10 C          59.8360   86.0765    7.6731 C.3     1  UNL1        0.0900
     11 N          58.5153   86.7359    7.9393 N.3     1  UNL1       -0.2946
     12 C          59.1535   87.5876    8.9963 C.3     1  UNL1        0.0900
     13 H          57.7973   86.1029    8.2918 H       1  UNL1        0.1233
     14 C          62.8900   86.0123    9.0039 C.3     1  UNL1        0.1177
     15 C          63.0542   84.8500    9.9380 C.ar    1  UNL1       -0.0024
     16 C          63.7246   83.5951    9.4630 C.ar    1  UNL1       -0.0026
     17 C          63.8888   82.4329   10.3969 C.ar    1  UNL1       -0.0003
     18 C          63.3826   82.5256   11.8059 C.ar    1  UNL1       -0.0000
     19 C          63.5468   81.3634   12.7399 C.ar    1  UNL1       -0.0000
     20 C          63.0405   81.4561   14.1488 C.ar    1  UNL1       -0.0000
     21 C          62.3701   82.7111   14.6237 C.ar    1  UNL1       -0.0000
     22 C          62.2059   83.8733   13.6898 C.ar    1  UNL1       -0.0000
     23 C          62.7121   83.7805   12.2809 C.ar    1  UNL1       -0.0003
     24 C          62.5480   84.9428   11.3469 C.ar    1  UNL1       -0.0026
@<TRIPOS>BOND
     1     2     3    1
     2     3     4   ar
     3     4     5   ar
     4     5     6   ar
     5     6     7   ar
     6     7     1    1
     7     1    14    1
     8    14    15    1
     9    15    16   ar
    10    16    17   ar
    11    17    18   ar
    12    18    19   ar
    13    19    20   ar
    14    20    21   ar
    15    21    22   ar
    16    22    23   ar
    17    23    24   ar
    18     1     9    1
    19     9    10    1
    20    10    11    1
    21    11    12    1
    22     7     8   ar
    23     8     3   ar
    24    24    15   ar
    25    12     9    1
    26    23    18   ar
    27    11    13    1
@<TRIPOS>MOLECULE
*****
 24 27 0 0 0
SMALL
GASTEIGER

@<TRIPOS>ATOM
      1 N          66.3788   92.5944   13.6833 N.pl3   1  UNL1       -0.3024
      2 CL         68.4158   91.9699    8.9440 Cl      1  UNL1       -0.0822
      3 C          67.6647   92.8090    9.9349 C.ar    1  UNL1        0.0589
      4 C          67.1809   94.1749    9.5469 C.ar    1  UNL1        0.0115
      5 C          66.4298   95.0139   10.5378 C.ar    1  UNL1        0.0021
      6 C          66.1625   94.4871   11.9166 C.ar    1  UNL1        0.0146
      7 C          66.6462   93.1213   12.3045 C.ar    1  UNL1        0.0490
      8 C          67.3973   92.2822   11.3136 C.ar    1  UNL1        0.0259
      9 C          67.4994   92.4833   14.6741 C.3     1  UNL1        0.1045
     10 C          68.9899   92.3445   14.5784 C.3     1  UNL1        0.0900
     11 N          69.0843   92.3262   16.0753 N.3     1  UNL1       -0.2946
     12 C          67.5938   92.4650   16.1710 C.3     1  UNL1        0.0900
     13 H          69.6019   93.1117   16.4696 H       1  UNL1        0.1233
     14 C          64.9907   92.1787   14.0712 C.3     1  UNL1        0.1177
     15 C          64.3574   90.9829   13.4238 C.ar    1  UNL1       -0.0024
     16 C          64.4671   89.6339   14.0705 C.ar    1  UNL1       -0.0026
     17 C          63.8339   88.4382   13.4231 C.ar    1  UNL1       -0.0003
     18 C          63.0909   88.5913   12.1290 C.ar    1  UNL1       -0.0000
     19 C          62.4577   87.3956   11.4816 C.ar    1  UNL1       -0.0000
     20 C          61.7148   87.5488   10.1876 C.ar    1  UNL1       -0.0000
     21 C          61.6052   88.8978    9.5409 C.ar    1  UNL1       -0.0000
     22 C          62.2384   90.0936   10.1882 C.ar    1  UNL1       -0.0000
     23 C          62.9813   89.9403   11.4823 C.ar    1  UNL1       -0.0003
     24 C          63.6146   91.1361   12.1297 C.ar    1  UNL1       -0.0026
@<TRIPOS>BOND
     1     2     3    1
     2     3     4   ar
     3     4     5   ar
     4     5     6   ar
     5     6     7   ar
     6     7     1    1
     7     1    14    1
     8    14    15    1
     9    15    16   ar
    10    16    17   ar
    11    17    18   ar
    12    18    19   ar
    13    19    20   ar
    14    20    21   ar
    15    21    22   ar
    16    22    23   ar
    17    23    24   ar
    18     1     9    1
    19     9    10    1
    20    10    11    1
    21    11    12    1
    22     7     8   ar
    23     8     3   ar
    24    24    15   ar
    25    12     9    1
    26    23    18   ar
    27    11    13    1
@<TRIPOS>MOLECULE
*****
 24 27 0 0 0
SMALL
GASTEIGER

@<TRIPOS>ATOM
      1 N          66.0335   92.6187   13.4509 N.pl3   1  UNL1       -0.3024
      2 CL         68.4646   91.9624    8.9057 Cl      1  UNL1       -0.0822
      3 C          67.6967   92.8346    9.8540 C.ar    1  UNL1        0.0589
      4 C          67.3763   94.2510    9.4781 C.ar    1  UNL1        0.0115
      5 C          66.6083   95.1233   10.4265 C.ar    1  UNL1        0.0021
      6 C          66.1607   94.5792   11.7507 C.ar    1  UNL1        0.0146
      7 C          66.4811   93.1628   12.1266 C.ar    1  UNL1        0.0490
      8 C          67.2491   92.2906   11.1782 C.ar    1  UNL1        0.0259
      9 C          67.0095   92.5066   14.5843 C.3     1  UNL1        0.1045
     10 C          66.9300   92.6732   16.0729 C.3     1  UNL1        0.0900
     11 N          68.3899   92.3482   16.1872 N.3     1  UNL1       -0.2946
     12 C          68.4694   92.1816   14.6986 C.3     1  UNL1        0.0900
     13 H          68.5870   91.4964   16.7127 H       1  UNL1        0.1233
     14 C          64.6098   92.1866   13.6416 C.3     1  UNL1        0.1177
     15 C          64.2001   90.7836   13.3040 C.ar    1  UNL1       -0.0024
     16 C          63.4268   90.5098   12.0482 C.ar    1  UNL1       -0.0026
     17 C          63.0171   89.1069   11.7105 C.ar    1  UNL1       -0.0003
     18 C          63.3808   87.9778   12.6286 C.ar    1  UNL1       -0.0000
     19 C          62.9711   86.5749   12.2909 C.ar    1  UNL1       -0.0000
     20 C          63.3348   85.4459   13.2090 C.ar    1  UNL1       -0.0000
     21 C          64.1082   85.7197   14.4648 C.ar    1  UNL1       -0.0000
     22 C          64.5178   87.1226   14.8025 C.ar    1  UNL1       -0.0000
     23 C          64.1541   88.2516   13.8844 C.ar    1  UNL1       -0.0003
     24 C          64.5638   89.6546   14.2221 C.ar    1  UNL1       -0.0026
@<TRIPOS>BOND
     1     2     3    1
     2     3     4   ar
     3     4     5   ar
     4     5     6   ar
     5     6     7   ar
     6     7     1    1
     7     1    14    1
     8    14    15    1
     9    15    16   ar
    10    16    17   ar
    11    17    18   ar
    12    18    19   ar
    13    19    20   ar
    14    20    21   ar
    15    21    22   ar
    16    22    23   ar
    17    23    24   ar
    18     1     9    1
    19     9    10    1
    20    10    11    1
    21    11    12    1
    22     7     8   ar
    23     8     3   ar
    24    24    15   ar
    25    12     9    1
    26    23    18   ar
    27    11    13    1
@<TRIPOS>MOLECULE
*****
 24 27 0 0 0
SMALL
GASTEIGER

@<TRIPOS>ATOM
      1 N          63.9281   88.2867   14.2199 N.pl3   1  UNL1       -0.3024
      2 CL         63.2035   91.5394   10.2330 Cl      1  UNL1       -0.0822
      3 C          63.0463   90.1788   10.8446 C.ar    1  UNL1        0.0589
      4 C          62.3696   89.0839   10.0742 C.ar    1  UNL1        0.0115
      5 C          62.2124   87.7233   10.6858 C.ar    1  UNL1        0.0021
      6 C          62.7319   87.4576   12.0677 C.ar    1  UNL1        0.0146
      7 C          63.4085   88.5524   12.8380 C.ar    1  UNL1        0.0490
      8 C          63.5657   89.9130   12.2264 C.ar    1  UNL1        0.0259
      9 C          63.6813   89.2788   15.3175 C.3     1  UNL1        0.1045
     10 C          63.0506   89.2211   16.6773 C.3     1  UNL1        0.0900
     11 N          63.3322   90.6818   16.8699 N.3     1  UNL1       -0.2946
     12 C          63.9629   90.7395   15.5101 C.3     1  UNL1        0.0900
     13 H          63.9746   90.8846   17.6358 H       1  UNL1        0.1233
     14 C          64.6944   87.0289   14.5040 C.3     1  UNL1        0.1177
     15 C          63.9922   85.7035   14.4896 C.ar    1  UNL1       -0.0024
     16 C          63.1272   85.3003   15.6469 C.ar    1  UNL1       -0.0026
     17 C          62.4251   83.9749   15.6325 C.ar    1  UNL1       -0.0003
     18 C          62.5879   83.0526   14.4607 C.ar    1  UNL1       -0.0000
     19 C          61.8857   81.7272   14.4463 C.ar    1  UNL1       -0.0000
     20 C          62.0485   80.8049   13.2746 C.ar    1  UNL1       -0.0000
     21 C          62.9135   81.2081   12.1174 C.ar    1  UNL1       -0.0000
     22 C          63.6157   82.5335   12.1318 C.ar    1  UNL1       -0.0000
     23 C          63.4528   83.4557   13.3035 C.ar    1  UNL1       -0.0003
     24 C          64.1550   84.7812   13.3179 C.ar    1  UNL1       -0.0026
@<TRIPOS>BOND
     1     2     3    1
     2     3     4   ar
     3     4     5   ar
     4     5     6   ar
     5     6     7   ar
     6     7     1    1
     7     1    14    1
     8    14    15    1
     9    15    16   ar
    10    16    17   ar
    11    17    18   ar
    12    18    19   ar
    13    19    20   ar
    14    20    21   ar
    15    21    22   ar
    16    22    23   ar
    17    23    24   ar
    18     1     9    1
    19     9    10    1
    20    10    11    1
    21    11    12    1
    22     7     8   ar
    23     8     3   ar
    24    24    15   ar
    25    12     9    1
    26    23    18   ar
    27    11    13    1
