@<TRIPOS>MOLECULE
*****
 24 26 0 0 0
SMALL
GASTEIGER

@<TRIPOS>ATOM
      1 C          65.1292   93.2375   10.7426 C.3     1  UNL1        0.0952
      2 C          64.1650   92.3484   10.0148 C.3     1  UNL1        0.0245
      3 C          63.5414   91.1812   10.7210 C.3     1  UNL1        0.0067
      4 C          63.8820   90.9030   12.1550 C.3     1  UNL1        0.0263
      5 C          64.8462   91.7921   12.8829 C.ar    1  UNL1       -0.0216
      6 C          65.1868   91.5139   14.3170 C.ar    1  UNL1        0.0150
      7 C          66.1510   92.4030   15.0449 C.ar    1  UNL1        0.0985
      8 N          66.7746   93.5702   14.3387 N.ar    1  UNL1       -0.2426
      9 C          66.4340   93.8484   12.9046 C.ar    1  UNL1        0.0959
     10 C          65.4698   92.9593   12.1767 C.ar    1  UNL1        0.0107
     11 C          64.5632   90.3467   15.0232 C.ar    1  UNL1        0.0012
     12 C          63.6662   90.5761   16.2033 C.ar    1  UNL1        0.0007
     13 C          63.0426   89.4089   16.9095 C.ar    1  UNL1        0.0103
     14 C          63.3160   88.0123   16.4356 C.ar    1  UNL1        0.0684
     15 C          64.2130   87.7828   15.2554 C.ar    1  UNL1        0.0103
     16 C          64.8366   88.9500   14.5492 C.ar    1  UNL1        0.0007
     17 C          62.6924   86.8451   17.1418 C.1     1  UNL1        0.1004
     18 N          62.0687   85.6778   17.8480 N.1     1  UNL1       -0.1908
     19 C          67.0745   94.2444    9.3456 C.2     1  UNL1        0.2226
     20 O          67.7727   92.9168    9.3609 O.2     1  UNL1       -0.2751
     21 N          65.7528   94.4047   10.0364 N.am    1  UNL1       -0.3022
     22 H          65.2946   95.2760   10.0264 H       1  UNL1        0.1497
     23 C          67.2500   96.8073    8.9575 C.3     1  UNL1        0.0101
     24 C          67.6981   95.4116    8.6394 C.3     1  UNL1        0.0851
@<TRIPOS>BOND
     1    23    24    1
     2    24    19    1
     3    19    20    2
     4    19    21   am
     5     1    21    1
     6     1     2    1
     7     2     3    1
     8     3     4    1
     9     4     5    1
    10     5     6   ar
    11     6    11    1
    12    11    12   ar
    13    12    13   ar
    14    13    14   ar
    15    14    17    1
    16    17    18    3
    17    14    15   ar
    18    15    16   ar
    19     6     7   ar
    20     7     8   ar
    21     8     9   ar
    22     9    10   ar
    23    10     1    1
    24    10     5   ar
    25    16    11   ar
    26    21    22    1
@<TRIPOS>MOLECULE
*****
 24 26 0 0 0
SMALL
GASTEIGER

@<TRIPOS>ATOM
      1 C          66.0366   92.7173   13.2462 C.3     1  UNL1        0.0952
      2 C          66.1551   93.2609   11.8532 C.3     1  UNL1        0.0245
      3 C          65.2649   92.7371   10.7654 C.3     1  UNL1        0.0067
      4 C          64.2562   91.6698   11.0706 C.3     1  UNL1        0.0263
      5 C          64.1376   91.1262   12.4636 C.ar    1  UNL1       -0.0216
      6 C          63.1288   90.0589   12.7689 C.ar    1  UNL1        0.0150
      7 C          63.0103   89.5153   14.1619 C.ar    1  UNL1        0.0985
      8 N          63.9005   90.0390   15.2496 N.ar    1  UNL1       -0.2426
      9 C          64.9092   91.1063   14.9444 C.ar    1  UNL1        0.0959
     10 C          65.0278   91.6500   13.5514 C.ar    1  UNL1        0.0107
     11 C          62.2386   89.5351   11.6811 C.ar    1  UNL1        0.0012
     12 C          61.0423   90.3276   11.2443 C.ar    1  UNL1        0.0007
     13 C          60.1521   89.8038   10.1566 C.ar    1  UNL1        0.0103
     14 C          60.4582   88.4876    9.5056 C.ar    1  UNL1        0.0684
     15 C          61.6546   87.6951    9.9424 C.ar    1  UNL1        0.0103
     16 C          62.5448   88.2188   11.0301 C.ar    1  UNL1        0.0007
     17 C          59.5680   87.9639    8.4178 C.1     1  UNL1        0.1004
     18 N          58.6778   87.4401    7.3301 N.1     1  UNL1       -0.1908
     19 C          68.3339   92.7369   14.4593 C.2     1  UNL1        0.2226
     20 O          68.8510   91.7091   13.4969 O.2     1  UNL1       -0.2751
     21 N          66.9268   93.2410   14.3339 N.am    1  UNL1       -0.3022
     22 H          66.5875   93.9156   14.9656 H       1  UNL1        0.1497
     23 C          69.0039   94.6384   16.0982 C.3     1  UNL1        0.0101
     24 C          69.2241   93.2607   15.5471 C.3     1  UNL1        0.0851
@<TRIPOS>BOND
     1    23    24    1
     2    24    19    1
     3    19    20    2
     4    19    21   am
     5     1    21    1
     6     1     2    1
     7     2     3    1
     8     3     4    1
     9     4     5    1
    10     5     6   ar
    11     6    11    1
    12    11    12   ar
    13    12    13   ar
    14    13    14   ar
    15    14    17    1
    16    17    18    3
    17    14    15   ar
    18    15    16   ar
    19     6     7   ar
    20     7     8   ar
    21     8     9   ar
    22     9    10   ar
    23    10     1    1
    24    10     5   ar
    25    16    11   ar
    26    21    22    1
@<TRIPOS>MOLECULE
*****
 24 26 0 0 0
SMALL
GASTEIGER

@<TRIPOS>ATOM
      1 C          66.1411   93.8632   11.8485 C.3     1  UNL1        0.0952
      2 C          66.8248   94.1566   13.1509 C.3     1  UNL1        0.0245
      3 C          66.5700   93.2849   14.3448 C.3     1  UNL1        0.0067
      4 C          65.6315   92.1199   14.2362 C.3     1  UNL1        0.0263
      5 C          64.9478   91.8265   12.9337 C.ar    1  UNL1       -0.0216
      6 C          64.0093   90.6614   12.8250 C.ar    1  UNL1        0.0150
      7 C          63.3256   90.3680   11.5226 C.ar    1  UNL1        0.0985
      8 N          63.5804   91.2397   10.3287 N.ar    1  UNL1       -0.2426
      9 C          64.5189   92.4047   10.4373 C.ar    1  UNL1        0.0959
     10 C          65.2026   92.6981   11.7398 C.ar    1  UNL1        0.0107
     11 C          63.7544   89.7897   14.0189 C.ar    1  UNL1        0.0012
     12 C          64.1364   88.3396   13.9840 C.ar    1  UNL1        0.0007
     13 C          63.8816   87.4680   15.1778 C.ar    1  UNL1        0.0103
     14 C          63.2448   88.0464   16.4066 C.ar    1  UNL1        0.0684
     15 C          62.8627   89.4966   16.4415 C.ar    1  UNL1        0.0103
     16 C          63.1176   90.3682   15.2477 C.ar    1  UNL1        0.0007
     17 C          62.9899   87.1748   17.6004 C.1     1  UNL1        0.1004
     18 N          62.7351   86.3031   18.7943 N.1     1  UNL1       -0.1908
     19 C          67.4882   94.3831    9.6886 C.2     1  UNL1        0.2226
     20 O          68.3256   93.1596    9.9164 O.2     1  UNL1       -0.2751
     21 N          66.3960   94.7348   10.6546 N.am    1  UNL1       -0.3022
     22 H          65.8464   95.5378   10.5051 H       1  UNL1        0.1497
     23 C          67.2669   96.6772    8.4893 C.3     1  UNL1        0.0101
     24 C          67.7430   95.2547    8.4947 C.3     1  UNL1        0.0851
@<TRIPOS>BOND
     1    23    24    1
     2    24    19    1
     3    19    20    2
     4    19    21   am
     5     1    21    1
     6     1     2    1
     7     2     3    1
     8     3     4    1
     9     4     5    1
    10     5     6   ar
    11     6    11    1
    12    11    12   ar
    13    12    13   ar
    14    13    14   ar
    15    14    17    1
    16    17    18    3
    17    14    15   ar
    18    15    16   ar
    19     6     7   ar
    20     7     8   ar
    21     8     9   ar
    22     9    10   ar
    23    10     1    1
    24    10     5   ar
    25    16    11   ar
    26    21    22    1
@<TRIPOS>MOLECULE
*****
 24 26 0 0 0
SMALL
GASTEIGER

@<TRIPOS>ATOM
      1 C          64.9383   91.6763   15.0359 C.3     1  UNL1        0.0952
      2 C          64.1152   90.7095   15.8345 C.3     1  UNL1        0.0245
      3 C          63.1060   89.8378   15.1477 C.3     1  UNL1        0.0067
      4 C          62.9198   89.9329   13.6624 C.3     1  UNL1        0.0263
      5 C          63.7429   90.8997   12.8638 C.ar    1  UNL1       -0.0216
      6 C          63.5568   90.9949   11.3784 C.ar    1  UNL1        0.0150
      7 C          64.3798   91.9617   10.5798 C.ar    1  UNL1        0.0985
      8 N          65.3891   92.8334   11.2666 N.ar    1  UNL1       -0.2426
      9 C          65.5752   92.7383   12.7519 C.ar    1  UNL1        0.0959
     10 C          64.7521   91.7714   13.5506 C.ar    1  UNL1        0.0107
     11 C          62.5475   90.1232   10.6917 C.ar    1  UNL1        0.0012
     12 C          61.1720   90.6494   10.4070 C.ar    1  UNL1        0.0007
     13 C          60.1628   89.7777    9.7203 C.ar    1  UNL1        0.0103
     14 C          60.5291   88.3798    9.3182 C.ar    1  UNL1        0.0684
     15 C          61.9046   87.8536    9.6028 C.ar    1  UNL1        0.0103
     16 C          62.9139   88.7253   10.2895 C.ar    1  UNL1        0.0007
     17 C          59.5198   87.5082    8.6314 C.1     1  UNL1        0.1004
     18 N          58.5106   86.6365    7.9447 N.1     1  UNL1       -0.1908
     19 C          67.4042   92.1940   15.6695 C.2     1  UNL1        0.2226
     20 O          67.8516   90.9682   14.9295 O.2     1  UNL1       -0.2751
     21 N          65.9475   92.5480   15.7226 N.am    1  UNL1       -0.3022
     22 H          65.6539   93.3524   16.2083 H       1  UNL1        0.1497
     23 C          68.8633   94.3433   15.7116 C.3     1  UNL1        0.0101
     24 C          68.4134   93.0657   16.3562 C.3     1  UNL1        0.0851
@<TRIPOS>BOND
     1    23    24    1
     2    24    19    1
     3    19    20    2
     4    19    21   am
     5     1    21    1
     6     1     2    1
     7     2     3    1
     8     3     4    1
     9     4     5    1
    10     5     6   ar
    11     6    11    1
    12    11    12   ar
    13    12    13   ar
    14    13    14   ar
    15    14    17    1
    16    17    18    3
    17    14    15   ar
    18    15    16   ar
    19     6     7   ar
    20     7     8   ar
    21     8     9   ar
    22     9    10   ar
    23    10     1    1
    24    10     5   ar
    25    16    11   ar
    26    21    22    1
@<TRIPOS>MOLECULE
*****
 24 26 0 0 0
SMALL
GASTEIGER

@<TRIPOS>ATOM
      1 C          63.4932   90.2327   14.3059 C.3     1  UNL1        0.0952
      2 C          62.7937   89.9258   13.0150 C.3     1  UNL1        0.0245
      3 C          63.1564   90.6770   11.7683 C.3     1  UNL1        0.0067
      4 C          64.2187   91.7351   11.8125 C.3     1  UNL1        0.0263
      5 C          64.9182   92.0420   13.1034 C.ar    1  UNL1       -0.0216
      6 C          65.9806   93.1001   13.1477 C.ar    1  UNL1        0.0150
      7 C          66.6801   93.4070   14.4386 C.ar    1  UNL1        0.0985
      8 N          66.3174   92.6558   15.6852 N.ar    1  UNL1       -0.2426
      9 C          65.2551   91.5978   15.6410 C.ar    1  UNL1        0.0959
     10 C          64.5555   91.2908   14.3501 C.ar    1  UNL1        0.0107
     11 C          66.3433   93.8513   11.9010 C.ar    1  UNL1        0.0012
     12 C          66.0926   95.3277   11.8153 C.ar    1  UNL1        0.0007
     13 C          66.4553   96.0788   10.5686 C.ar    1  UNL1        0.0103
     14 C          67.0688   95.3536    9.4077 C.ar    1  UNL1        0.0684
     15 C          67.3195   93.8772    9.4934 C.ar    1  UNL1        0.0103
     16 C          66.9568   93.1260   10.7401 C.ar    1  UNL1        0.0007
     17 C          67.4315   96.1048    8.1610 C.1     1  UNL1        0.1004
     18 N          67.7943   96.8560    6.9144 N.1     1  UNL1       -0.1908
     19 C          63.5241   88.0419   15.7020 C.2     1  UNL1        0.2226
     20 O          64.2806   87.3533   14.6048 O.2     1  UNL1       -0.2751
     21 N          63.1305   89.4816   15.5525 N.am    1  UNL1       -0.3022
     22 H          62.6340   89.9335   16.2726 H       1  UNL1        0.1497
     23 C          62.9886   85.8014   16.9034 C.3     1  UNL1        0.0101
     24 C          63.1614   87.2907   16.9487 C.3     1  UNL1        0.0851
@<TRIPOS>BOND
     1    23    24    1
     2    24    19    1
     3    19    20    2
     4    19    21   am
     5     1    21    1
     6     1     2    1
     7     2     3    1
     8     3     4    1
     9     4     5    1
    10     5     6   ar
    11     6    11    1
    12    11    12   ar
    13    12    13   ar
    14    13    14   ar
    15    14    17    1
    16    17    18    3
    17    14    15   ar
    18    15    16   ar
    19     6     7   ar
    20     7     8   ar
    21     8     9   ar
    22     9    10   ar
    23    10     1    1
    24    10     5   ar
    25    16    11   ar
    26    21    22    1
@<TRIPOS>MOLECULE
*****
 24 26 0 0 0
SMALL
GASTEIGER

@<TRIPOS>ATOM
      1 C          62.5892   85.3855    8.7876 C.3     1  UNL1        0.0952
      2 C          61.8199   86.6525    9.0172 C.3     1  UNL1        0.0245
      3 C          61.6320   87.1737   10.4111 C.3     1  UNL1        0.0067
      4 C          62.2133   86.4279   11.5754 C.3     1  UNL1        0.0263
      5 C          62.9826   85.1608   11.3458 C.ar    1  UNL1       -0.0216
      6 C          63.5641   84.4149   12.5102 C.ar    1  UNL1        0.0150
      7 C          64.3334   83.1479   12.2806 C.ar    1  UNL1        0.0985
      8 N          64.5213   82.6267   10.8867 N.ar    1  UNL1       -0.2426
      9 C          63.9400   83.3725    9.7223 C.ar    1  UNL1        0.0959
     10 C          63.1706   84.6396    9.9519 C.ar    1  UNL1        0.0107
     11 C          63.3761   84.9361   13.9041 C.ar    1  UNL1        0.0012
     12 C          64.1933   86.0975   14.3872 C.ar    1  UNL1        0.0007
     13 C          64.0053   86.6187   15.7811 C.ar    1  UNL1        0.0103
     14 C          63.0002   85.9785   16.6920 C.ar    1  UNL1        0.0684
     15 C          62.1829   84.8170   16.2090 C.ar    1  UNL1        0.0103
     16 C          62.3709   84.2959   14.8150 C.ar    1  UNL1        0.0007
     17 C          62.8122   86.4997   18.0859 C.1     1  UNL1        0.1004
     18 N          62.6243   87.0209   19.4798 N.1     1  UNL1       -0.1908
     19 C          61.5875   84.6550    6.5044 C.2     1  UNL1        0.2226
     20 O          60.2098   84.9669    7.0091 O.2     1  UNL1       -0.2751
     21 N          62.7772   84.8643    7.3937 N.am    1  UNL1       -0.3022
     22 H          63.6814   84.6596    7.0624 H       1  UNL1        0.1497
     23 C          62.6244   84.8928    4.1341 C.3     1  UNL1        0.0101
     24 C          61.7755   84.1338    5.1105 C.3     1  UNL1        0.0851
@<TRIPOS>BOND
     1    23    24    1
     2    24    19    1
     3    19    20    2
     4    19    21   am
     5     1    21    1
     6     1     2    1
     7     2     3    1
     8     3     4    1
     9     4     5    1
    10     5     6   ar
    11     6    11    1
    12    11    12   ar
    13    12    13   ar
    14    13    14   ar
    15    14    17    1
    16    17    18    3
    17    14    15   ar
    18    15    16   ar
    19     6     7   ar
    20     7     8   ar
    21     8     9   ar
    22     9    10   ar
    23    10     1    1
    24    10     5   ar
    25    16    11   ar
    26    21    22    1
@<TRIPOS>MOLECULE
*****
 24 26 0 0 0
SMALL
GASTEIGER

@<TRIPOS>ATOM
      1 C          64.1526   90.2707   13.2275 C.3     1  UNL1        0.0952
      2 C          64.7200   89.7942   14.5317 C.3     1  UNL1        0.0245
      3 C          64.6304   88.3437   14.9034 C.3     1  UNL1        0.0067
      4 C          63.9735   87.3697   13.9708 C.3     1  UNL1        0.0263
      5 C          63.4062   87.8462   12.6666 C.ar    1  UNL1       -0.0216
      6 C          62.7493   86.8722   11.7339 C.ar    1  UNL1        0.0150
      7 C          62.1819   87.3487   10.4296 C.ar    1  UNL1        0.0985
      8 N          62.2715   88.7991   10.0580 N.ar    1  UNL1       -0.2426
      9 C          62.9284   89.7731   10.9906 C.ar    1  UNL1        0.0959
     10 C          63.4957   89.2967   12.2949 C.ar    1  UNL1        0.0107
     11 C          62.6597   85.4217   12.1055 C.ar    1  UNL1        0.0012
     12 C          62.4381   85.0261   13.5353 C.ar    1  UNL1        0.0007
     13 C          62.3485   83.5756   13.9069 C.ar    1  UNL1        0.0103
     14 C          62.4806   82.5208   12.8488 C.ar    1  UNL1        0.0684
     15 C          62.7023   82.9163   11.4189 C.ar    1  UNL1        0.0103
     16 C          62.7918   84.3668   11.0473 C.ar    1  UNL1        0.0007
     17 C          62.3911   81.0703   13.2204 C.1     1  UNL1        0.1004
     18 N          62.3015   79.6198   13.5921 N.1     1  UNL1       -0.1908
     19 C          65.5831   92.3809   12.7270 C.2     1  UNL1        0.2226
     20 O          66.8345   91.5903   12.9697 O.2     1  UNL1       -0.2751
     21 N          64.2422   91.7211   12.8559 N.am    1  UNL1       -0.3022
     22 H          63.4209   92.2401   12.6966 H       1  UNL1        0.1497
     23 C          66.1176   94.2268   10.9784 C.3     1  UNL1        0.0101
     24 C          65.6726   93.8314   12.3553 C.3     1  UNL1        0.0851
@<TRIPOS>BOND
     1    23    24    1
     2    24    19    1
     3    19    20    2
     4    19    21   am
     5     1    21    1
     6     1     2    1
     7     2     3    1
     8     3     4    1
     9     4     5    1
    10     5     6   ar
    11     6    11    1
    12    11    12   ar
    13    12    13   ar
    14    13    14   ar
    15    14    17    1
    16    17    18    3
    17    14    15   ar
    18    15    16   ar
    19     6     7   ar
    20     7     8   ar
    21     8     9   ar
    22     9    10   ar
    23    10     1    1
    24    10     5   ar
    25    16    11   ar
    26    21    22    1
@<TRIPOS>MOLECULE
*****
 24 26 0 0 0
SMALL
GASTEIGER

@<TRIPOS>ATOM
      1 C          63.2793   83.2980   11.4541 C.3     1  UNL1        0.0952
      2 C          62.7428   84.3336   10.5109 C.3     1  UNL1        0.0245
      3 C          62.6304   85.7630   10.9514 C.3     1  UNL1        0.0067
      4 C          63.0546   86.1568   12.3352 C.3     1  UNL1        0.0263
      5 C          63.5911   85.1213   13.2784 C.ar    1  UNL1       -0.0216
      6 C          64.0153   85.5151   14.6623 C.ar    1  UNL1        0.0150
      7 C          64.5518   84.4795   15.6055 C.ar    1  UNL1        0.0985
      8 N          64.6642   83.0501   15.1649 N.ar    1  UNL1       -0.2426
      9 C          64.2400   82.6562   13.7812 C.ar    1  UNL1        0.0959
     10 C          63.7034   83.6918   12.8379 C.ar    1  UNL1        0.0107
     11 C          63.9030   86.9445   15.1029 C.ar    1  UNL1        0.0012
     12 C          63.2760   87.2748   16.4249 C.ar    1  UNL1        0.0007
     13 C          63.1637   88.7043   16.8655 C.ar    1  UNL1        0.0103
     14 C          63.6783   89.8034   15.9840 C.ar    1  UNL1        0.0684
     15 C          64.3053   89.4732   14.6619 C.ar    1  UNL1        0.0103
     16 C          64.4176   88.0437   14.2213 C.ar    1  UNL1        0.0007
     17 C          63.5660   91.2328   16.4246 C.1     1  UNL1        0.1004
     18 N          63.4536   92.6623   16.8651 N.1     1  UNL1       -0.1908
     19 C          62.5859   80.8063   11.7009 C.2     1  UNL1        0.2226
     20 O          61.6678   81.1736   12.8289 O.2     1  UNL1       -0.2751
     21 N          63.3916   81.8685   11.0135 N.am    1  UNL1       -0.3022
     22 H          63.9942   81.6275   10.2732 H       1  UNL1        0.1497
     23 C          62.7501   79.0445    9.7985 C.3     1  UNL1        0.0101
     24 C          62.6982   79.3769   11.2603 C.3     1  UNL1        0.0851
@<TRIPOS>BOND
     1    23    24    1
     2    24    19    1
     3    19    20    2
     4    19    21   am
     5     1    21    1
     6     1     2    1
     7     2     3    1
     8     3     4    1
     9     4     5    1
    10     5     6   ar
    11     6    11    1
    12    11    12   ar
    13    12    13   ar
    14    13    14   ar
    15    14    17    1
    16    17    18    3
    17    14    15   ar
    18    15    16   ar
    19     6     7   ar
    20     7     8   ar
    21     8     9   ar
    22     9    10   ar
    23    10     1    1
    24    10     5   ar
    25    16    11   ar
    26    21    22    1
@<TRIPOS>MOLECULE
*****
 24 26 0 0 0
SMALL
GASTEIGER

@<TRIPOS>ATOM
      1 C          63.2925   90.2947   12.9147 C.3     1  UNL1        0.0952
      2 C          62.9942   91.2107   11.7650 C.3     1  UNL1        0.0245
      3 C          62.6304   90.6402   10.4263 C.3     1  UNL1        0.0067
      4 C          62.5648   89.1536   10.2373 C.3     1  UNL1        0.0263
      5 C          62.8631   88.2376   11.3869 C.ar    1  UNL1       -0.0216
      6 C          62.7975   86.7509   11.1980 C.ar    1  UNL1        0.0150
      7 C          63.0958   85.8349   12.3477 C.ar    1  UNL1        0.0985
      8 N          63.4597   86.4054   13.6864 N.ar    1  UNL1       -0.2426
      9 C          63.5252   87.8920   13.8754 C.ar    1  UNL1        0.0959
     10 C          63.2269   88.8081   12.7257 C.ar    1  UNL1        0.0107
     11 C          62.4337   86.1804    9.8593 C.ar    1  UNL1        0.0012
     12 C          61.1134   86.5193    9.2333 C.ar    1  UNL1        0.0007
     13 C          60.7496   85.9487    7.8946 C.ar    1  UNL1        0.0103
     14 C          61.7061   85.0393    7.1819 C.ar    1  UNL1        0.0684
     15 C          63.0265   84.7004    7.8078 C.ar    1  UNL1        0.0103
     16 C          63.3903   85.2710    9.1465 C.ar    1  UNL1        0.0007
     17 C          61.3422   84.4688    5.8432 C.1     1  UNL1        0.1004
     18 N          60.9784   83.8983    4.5045 N.1     1  UNL1       -0.1908
     19 C          65.0035   91.4913   14.4608 C.2     1  UNL1        0.2226
     20 O          65.9869   91.5468   13.3294 O.2     1  UNL1       -0.2751
     21 N          63.6563   90.8652   14.2534 N.am    1  UNL1       -0.3022
     22 H          63.0109   90.8287   14.9959 H       1  UNL1        0.1497
     23 C          66.7096   92.6996   16.0032 C.3     1  UNL1        0.0101
     24 C          65.3673   92.0618   15.7995 C.3     1  UNL1        0.0851
@<TRIPOS>BOND
     1    23    24    1
     2    24    19    1
     3    19    20    2
     4    19    21   am
     5     1    21    1
     6     1     2    1
     7     2     3    1
     8     3     4    1
     9     4     5    1
    10     5     6   ar
    11     6    11    1
    12    11    12   ar
    13    12    13   ar
    14    13    14   ar
    15    14    17    1
    16    17    18    3
    17    14    15   ar
    18    15    16   ar
    19     6     7   ar
    20     7     8   ar
    21     8     9   ar
    22     9    10   ar
    23    10     1    1
    24    10     5   ar
    25    16    11   ar
    26    21    22    1
