@<TRIPOS>MOLECULE
*****
 30 32 0 0 0
SMALL
GASTEIGER

@<TRIPOS>ATOM
      1 C          64.3524   89.6873   14.1858 C.ar    1  UNL1        0.0942
      2 C          65.4732   90.4972   14.7672 C.ar    1  UNL1        0.1078
      3 N          65.8821   91.7862   14.1182 N.ar    1  UNL1       -0.2119
      4 C          65.1704   92.2653   12.8877 C.ar    1  UNL1        0.2206
      5 N          64.0496   91.4553   12.3064 N.ar    1  UNL1       -0.2094
      6 C          63.6407   90.1663   12.9555 C.ar    1  UNL1        0.1613
      7 O          63.1469   88.4182   16.1057 O.2     1  UNL1       -0.2700
      8 C          63.9435   88.3983   14.8349 C.2     1  UNL1        0.2488
      9 N          64.3311   87.0894   14.2130 N.am    1  UNL1       -0.3008
     10 H          64.8538   87.0764   13.3789 H       1  UNL1        0.1497
     11 C          63.9221   85.8004   14.8620 C.3     1  UNL1        0.0896
     12 C          63.4693   84.6462   14.0177 C.3     1  UNL1        0.0196
     13 C          63.1529   84.8569   12.5667 C.3     1  UNL1        0.0017
     14 C          62.7001   83.7027   11.7226 C.3     1  UNL1        0.0001
     15 C          62.5637   82.3377   12.3294 C.3     1  UNL1        0.0000
     16 C          62.8800   82.1270   13.7804 C.3     1  UNL1        0.0001
     17 C          63.3328   83.2812   14.6246 C.3     1  UNL1        0.0017
     18 C          62.5200   89.3564   12.3741 C.3     1  UNL1        0.4351
     19 F          61.3992   88.5464   11.7927 F       1  UNL1       -0.1644
     20 F          63.5010   88.6165   11.5137 F       1  UNL1       -0.1644
     21 F          61.5390   90.0962   13.2345 F       1  UNL1       -0.1644
     22 N          65.5793   93.5542   12.2387 N.pl3   1  UNL1       -0.2825
     23 H          65.2491   94.4108   12.5942 H       1  UNL1        0.1551
     24 C          66.4915   93.5381   11.0480 C.ar    1  UNL1        0.0513
     25 C          67.3035   92.3146   10.7418 C.ar    1  UNL1        0.0147
     26 C          68.2156   92.2984    9.5512 C.ar    1  UNL1        0.0021
     27 C          68.3159   93.5058    8.6667 C.ar    1  UNL1        0.0115
     28 C          67.5040   94.7292    8.9730 C.ar    1  UNL1        0.0589
     29 CL         67.6042   95.9367    8.0885 Cl      1  UNL1       -0.0822
     30 C          66.5918   94.7454   10.1636 C.ar    1  UNL1        0.0261
@<TRIPOS>BOND
     1     7     8    2
     2     8     9   am
     3     9    11    1
     4    11    12    1
     5    12    13    1
     6    13    14    1
     7    14    15    1
     8    15    16    1
     9    16    17    1
    10     8     1    1
    11     1     2   ar
    12     2     3   ar
    13     3     4   ar
    14     4    22    1
    15    22    24    1
    16    24    25   ar
    17    25    26   ar
    18    26    27   ar
    19    27    28   ar
    20    28    29    1
    21    28    30   ar
    22     4     5   ar
    23     5     6   ar
    24     6    18    1
    25    18    19    1
    26    18    20    1
    27    18    21    1
    28    17    12    1
    29     6     1   ar
    30    30    24   ar
    31     9    10    1
    32    22    23    1
@<TRIPOS>MOLECULE
*****
 30 32 0 0 0
SMALL
GASTEIGER

@<TRIPOS>ATOM
      1 C          63.0654   89.7765   12.0794 C.ar    1  UNL1        0.0942
      2 C          63.2122   90.6576   10.8745 C.ar    1  UNL1        0.1078
      3 N          64.0591   91.8935   10.9478 N.ar    1  UNL1       -0.2119
      4 C          64.7591   92.2483   12.2262 C.ar    1  UNL1        0.2206
      5 N          64.6122   91.3671   13.4312 N.ar    1  UNL1       -0.2094
      6 C          63.7653   90.1312   13.3578 C.ar    1  UNL1        0.1613
      7 O          60.7232   88.6528   12.0432 O.2     1  UNL1       -0.2700
      8 C          62.2185   88.5406   12.0061 C.2     1  UNL1        0.2488
      9 N          62.8670   87.1925   11.8957 N.am    1  UNL1       -0.3008
     10 H          63.8484   87.1189   11.8714 H       1  UNL1        0.1497
     11 C          62.0202   85.9566   11.8223 C.3     1  UNL1        0.0896
     12 C          62.6574   84.6256   11.5531 C.3     1  UNL1        0.0196
     13 C          62.6196   83.5507   12.5986 C.3     1  UNL1        0.0017
     14 C          63.2568   82.2198   12.3293 C.3     1  UNL1        0.0001
     15 C          63.9319   81.9638   11.0145 C.3     1  UNL1        0.0000
     16 C          63.9698   83.0387    9.9690 C.3     1  UNL1        0.0001
     17 C          63.3325   84.3696   10.2383 C.3     1  UNL1        0.0017
     18 C          63.6184   89.2501   14.5628 C.3     1  UNL1        0.4351
     19 F          63.4715   88.3689   15.7678 F       1  UNL1       -0.1644
     20 F          64.8663   88.5131   14.1760 F       1  UNL1       -0.1644
     21 F          62.3705   89.9870   14.9496 F       1  UNL1       -0.1644
     22 N          65.6059   93.4842   12.2995 N.pl3   1  UNL1       -0.2825
     23 H          65.6323   94.0143   13.1287 H       1  UNL1        0.1551
     24 C          66.4126   93.9123   11.1096 C.ar    1  UNL1        0.0513
     25 C          66.3866   95.3435   10.6615 C.ar    1  UNL1        0.0147
     26 C          67.1933   95.7717    9.4715 C.ar    1  UNL1        0.0021
     27 C          68.0261   94.7686    8.7298 C.ar    1  UNL1        0.0115
     28 C          68.0521   93.3374    9.1779 C.ar    1  UNL1        0.0589
     29 CL         68.8849   92.3342    8.4361 Cl      1  UNL1       -0.0822
     30 C          67.2454   92.9092   10.3678 C.ar    1  UNL1        0.0261
@<TRIPOS>BOND
     1     7     8    2
     2     8     9   am
     3     9    11    1
     4    11    12    1
     5    12    13    1
     6    13    14    1
     7    14    15    1
     8    15    16    1
     9    16    17    1
    10     8     1    1
    11     1     2   ar
    12     2     3   ar
    13     3     4   ar
    14     4    22    1
    15    22    24    1
    16    24    25   ar
    17    25    26   ar
    18    26    27   ar
    19    27    28   ar
    20    28    29    1
    21    28    30   ar
    22     4     5   ar
    23     5     6   ar
    24     6    18    1
    25    18    19    1
    26    18    20    1
    27    18    21    1
    28    17    12    1
    29     6     1   ar
    30    30    24   ar
    31     9    10    1
    32    22    23    1
@<TRIPOS>MOLECULE
*****
 30 32 0 0 0
SMALL
GASTEIGER

@<TRIPOS>ATOM
      1 C          62.9753   89.0832   12.1524 C.ar    1  UNL1        0.0942
      2 C          63.8794   89.2475   13.3381 C.ar    1  UNL1        0.1078
      3 N          64.6582   90.5169   13.5172 N.ar    1  UNL1       -0.2119
      4 C          64.5330   91.6220   12.5106 C.ar    1  UNL1        0.2206
      5 N          63.6290   91.4576   11.3249 N.ar    1  UNL1       -0.2094
      6 C          62.8501   90.1882   11.1459 C.ar    1  UNL1        0.1613
      7 O          60.7093   87.8665   11.7851 O.2     1  UNL1       -0.2700
      8 C          62.1965   87.8138   11.9733 C.2     1  UNL1        0.2488
      9 N          62.9049   86.4916   11.9825 N.am    1  UNL1       -0.3008
     10 H          63.8810   86.4569   12.1061 H       1  UNL1        0.1497
     11 C          62.1261   85.2222   11.8034 C.3     1  UNL1        0.0896
     12 C          62.6012   83.9536   12.4477 C.3     1  UNL1        0.0196
     13 C          62.8791   83.9191   13.9213 C.3     1  UNL1        0.0017
     14 C          63.3541   82.6505   14.5654 C.3     1  UNL1        0.0001
     15 C          63.5513   81.4164   13.7359 C.3     1  UNL1        0.0000
     16 C          63.2734   81.4508   12.2623 C.3     1  UNL1        0.0001
     17 C          62.7984   82.7194   11.6182 C.3     1  UNL1        0.0017
     18 C          61.9461   90.0238    9.9602 C.3     1  UNL1        0.4351
     19 F          61.0421   89.8595    8.7746 F       1  UNL1       -0.1644
     20 F          62.9127   89.0472    9.3586 F       1  UNL1       -0.1644
     21 F          60.9795   91.0004   10.5618 F       1  UNL1       -0.1644
     22 N          65.3118   92.8913   12.6896 N.pl3   1  UNL1       -0.2825
     23 H          65.2908   93.3641   13.5530 H       1  UNL1        0.1551
     24 C          66.1226   93.4405   11.5534 C.ar    1  UNL1        0.0513
     25 C          66.0668   94.9043   11.2309 C.ar    1  UNL1        0.0147
     26 C          66.8776   95.4534   10.0946 C.ar    1  UNL1        0.0021
     27 C          67.7442   94.5387    9.2809 C.ar    1  UNL1        0.0115
     28 C          67.8000   93.0749    9.6034 C.ar    1  UNL1        0.0589
     29 CL         68.6667   92.1601    8.7896 Cl      1  UNL1       -0.0822
     30 C          66.9892   92.5258   10.7397 C.ar    1  UNL1        0.0261
@<TRIPOS>BOND
     1     7     8    2
     2     8     9   am
     3     9    11    1
     4    11    12    1
     5    12    13    1
     6    13    14    1
     7    14    15    1
     8    15    16    1
     9    16    17    1
    10     8     1    1
    11     1     2   ar
    12     2     3   ar
    13     3     4   ar
    14     4    22    1
    15    22    24    1
    16    24    25   ar
    17    25    26   ar
    18    26    27   ar
    19    27    28   ar
    20    28    29    1
    21    28    30   ar
    22     4     5   ar
    23     5     6   ar
    24     6    18    1
    25    18    19    1
    26    18    20    1
    27    18    21    1
    28    17    12    1
    29     6     1   ar
    30    30    24   ar
    31     9    10    1
    32    22    23    1
@<TRIPOS>MOLECULE
*****
 30 32 0 0 0
SMALL
GASTEIGER

@<TRIPOS>ATOM
      1 C          63.0121   89.0594   12.1293 C.ar    1  UNL1        0.0942
      2 C          63.9553   89.4801   13.2172 C.ar    1  UNL1        0.1078
      3 N          64.6411   90.8120   13.1417 N.ar    1  UNL1       -0.2119
      4 C          64.3838   91.7233   11.9783 C.ar    1  UNL1        0.2206
      5 N          63.4406   91.3026   10.8904 N.ar    1  UNL1       -0.2094
      6 C          62.7548   89.9706   10.9659 C.ar    1  UNL1        0.1613
      7 O          60.9223   87.5772   11.6988 O.2     1  UNL1       -0.2700
      8 C          62.3263   87.7276   12.2048 C.2     1  UNL1        0.2488
      9 N          63.0446   86.5460   12.7862 N.am    1  UNL1       -0.3008
     10 H          63.9661   86.6447   13.1183 H       1  UNL1        0.1497
     11 C          62.3588   85.2141   12.8617 C.3     1  UNL1        0.0896
     12 C          62.8363   84.0752   12.0102 C.3     1  UNL1        0.0196
     13 C          63.5693   84.3512   10.7309 C.3     1  UNL1        0.0017
     14 C          64.0468   83.2124    9.8794 C.3     1  UNL1        0.0001
     15 C          63.7914   81.7976   10.3073 C.3     1  UNL1        0.0000
     16 C          63.0584   81.5216   11.5866 C.3     1  UNL1        0.0001
     17 C          62.5809   82.6604   12.4380 C.3     1  UNL1        0.0017
     18 C          61.8116   89.5500    9.8780 C.3     1  UNL1        0.4351
     19 F          60.8685   89.1293    8.7902 F       1  UNL1       -0.1644
     20 F          60.8262   90.5857   10.3319 F       1  UNL1       -0.1644
     21 F          62.7971   88.5142    9.4242 F       1  UNL1       -0.1644
     22 N          65.0696   93.0551   11.9028 N.pl3   1  UNL1       -0.2825
     23 H          64.8022   93.7816   12.5110 H       1  UNL1        0.1551
     24 C          66.1627   93.2801   10.9006 C.ar    1  UNL1        0.0513
     25 C          67.1241   92.1747   10.5786 C.ar    1  UNL1        0.0147
     26 C          68.2173   92.3997    9.5764 C.ar    1  UNL1        0.0021
     27 C          68.3491   93.7301    8.8963 C.ar    1  UNL1        0.0115
     28 C          67.3877   94.8355    9.2184 C.ar    1  UNL1        0.0589
     29 CL         67.5195   96.1660    8.5382 Cl      1  UNL1       -0.0822
     30 C          66.2945   94.6105   10.2205 C.ar    1  UNL1        0.0261
@<TRIPOS>BOND
     1     7     8    2
     2     8     9   am
     3     9    11    1
     4    11    12    1
     5    12    13    1
     6    13    14    1
     7    14    15    1
     8    15    16    1
     9    16    17    1
    10     8     1    1
    11     1     2   ar
    12     2     3   ar
    13     3     4   ar
    14     4    22    1
    15    22    24    1
    16    24    25   ar
    17    25    26   ar
    18    26    27   ar
    19    27    28   ar
    20    28    29    1
    21    28    30   ar
    22     4     5   ar
    23     5     6   ar
    24     6    18    1
    25    18    19    1
    26    18    20    1
    27    18    21    1
    28    17    12    1
    29     6     1   ar
    30    30    24   ar
    31     9    10    1
    32    22    23    1
@<TRIPOS>MOLECULE
*****
 30 32 0 0 0
SMALL
GASTEIGER

@<TRIPOS>ATOM
      1 C          61.2149   86.6870    9.2719 C.ar    1  UNL1        0.0942
      2 C          60.4299   86.0345    8.1728 C.ar    1  UNL1        0.1078
      3 N          59.4527   86.8401    7.3690 N.ar    1  UNL1       -0.2119
      4 C          59.2606   88.2982    7.6642 C.ar    1  UNL1        0.2206
      5 N          60.0457   88.9507    8.7633 N.ar    1  UNL1       -0.2094
      6 C          61.0229   88.1450    9.5671 C.ar    1  UNL1        0.1613
      7 O          63.3069   85.1506    9.3877 O.2     1  UNL1       -0.2700
      8 C          62.1921   85.8814   10.0757 C.2     1  UNL1        0.2488
      9 N          62.0545   85.8065   11.5675 N.am    1  UNL1       -0.3008
     10 H          61.3228   86.2861   12.0191 H       1  UNL1        0.1497
     11 C          63.0316   85.0009   12.3713 C.3     1  UNL1        0.0896
     12 C          62.7558   83.5542   12.6564 C.3     1  UNL1        0.0196
     13 C          62.2063   83.1442   13.9905 C.3     1  UNL1        0.0017
     14 C          61.9305   81.6976   14.2755 C.3     1  UNL1        0.0001
     15 C          62.2042   80.6610   13.2264 C.3     1  UNL1        0.0000
     16 C          62.7537   81.0711   11.8922 C.3     1  UNL1        0.0001
     17 C          63.0295   82.5176   11.6072 C.3     1  UNL1        0.0017
     18 C          61.8080   88.7974   10.6662 C.3     1  UNL1        0.4351
     19 F          62.5931   89.4498   11.7653 F       1  UNL1       -0.1644
     20 F          62.9535   89.0104    9.7215 F       1  UNL1       -0.1644
     21 F          60.6625   88.5844   11.6109 F       1  UNL1       -0.1644
     22 N          58.2835   89.1038    6.8604 N.pl3   1  UNL1       -0.2825
     23 H          57.3168   88.9439    6.9567 H       1  UNL1        0.1551
     24 C          58.7791   90.1531    5.9100 C.ar    1  UNL1        0.0513
     25 C          57.8316   91.1820    5.3682 C.ar    1  UNL1        0.0147
     26 C          58.3272   92.2313    4.4177 C.ar    1  UNL1        0.0021
     27 C          59.7703   92.2516    4.0090 C.ar    1  UNL1        0.0115
     28 C          60.7178   91.2227    4.5508 C.ar    1  UNL1        0.0589
     29 CL         62.1609   91.2430    4.1421 Cl      1  UNL1       -0.0822
     30 C          60.2222   90.1734    5.5013 C.ar    1  UNL1        0.0261
@<TRIPOS>BOND
     1     7     8    2
     2     8     9   am
     3     9    11    1
     4    11    12    1
     5    12    13    1
     6    13    14    1
     7    14    15    1
     8    15    16    1
     9    16    17    1
    10     8     1    1
    11     1     2   ar
    12     2     3   ar
    13     3     4   ar
    14     4    22    1
    15    22    24    1
    16    24    25   ar
    17    25    26   ar
    18    26    27   ar
    19    27    28   ar
    20    28    29    1
    21    28    30   ar
    22     4     5   ar
    23     5     6   ar
    24     6    18    1
    25    18    19    1
    26    18    20    1
    27    18    21    1
    28    17    12    1
    29     6     1   ar
    30    30    24   ar
    31     9    10    1
    32    22    23    1
@<TRIPOS>MOLECULE
*****
 30 32 0 0 0
SMALL
GASTEIGER

@<TRIPOS>ATOM
      1 C          64.0632   89.6448   13.5217 C.ar    1  UNL1        0.0942
      2 C          64.5800   88.6483   14.5166 C.ar    1  UNL1        0.1078
      3 N          64.1573   87.2119   14.4282 N.ar    1  UNL1       -0.2119
      4 C          63.2177   86.7718   13.3448 C.ar    1  UNL1        0.2206
      5 N          62.7009   87.7683   12.3499 N.ar    1  UNL1       -0.2094
      6 C          63.1237   89.2048   12.4383 C.ar    1  UNL1        0.1613
      7 O          64.0240   91.9298   14.7575 O.2     1  UNL1       -0.2700
      8 C          64.4859   91.0813   13.6101 C.2     1  UNL1        0.2488
      9 N          65.3707   91.6693   12.5510 N.am    1  UNL1       -0.3008
     10 H          65.6739   91.1124   11.7979 H       1  UNL1        0.1497
     11 C          65.7934   93.1057   12.6394 C.3     1  UNL1        0.0896
     12 C          66.3894   93.7871   11.4433 C.3     1  UNL1        0.0196
     13 C          67.1215   92.9836   10.4097 C.3     1  UNL1        0.0017
     14 C          67.7175   93.6650    9.2138 C.3     1  UNL1        0.0001
     15 C          67.5814   95.1499    9.0513 C.3     1  UNL1        0.0000
     16 C          66.8494   95.9535   10.0849 C.3     1  UNL1        0.0001
     17 C          66.2533   95.2721   11.2809 C.3     1  UNL1        0.0017
     18 C          62.6069   90.2013   11.4434 C.3     1  UNL1        0.4351
     19 F          62.0901   91.1978   10.4484 F       1  UNL1       -0.1644
     20 F          63.8100   89.9630   10.5798 F       1  UNL1       -0.1644
     21 F          61.4038   90.4397   12.3070 F       1  UNL1       -0.1644
     22 N          62.7950   85.3354   13.2564 N.pl3   1  UNL1       -0.2825
     23 H          62.2402   84.9408   13.9677 H       1  UNL1        0.1551
     24 C          63.2175   84.5000   12.0844 C.ar    1  UNL1        0.0513
     25 C          63.9097   83.1884   12.3089 C.ar    1  UNL1        0.0147
     26 C          64.3322   82.3530   11.1369 C.ar    1  UNL1        0.0021
     27 C          64.0625   82.8292    9.7404 C.ar    1  UNL1        0.0115
     28 C          63.3702   84.1408    9.5158 C.ar    1  UNL1        0.0589
     29 CL         63.1005   84.6171    8.1192 Cl      1  UNL1       -0.0822
     30 C          62.9478   84.9762   10.6879 C.ar    1  UNL1        0.0261
@<TRIPOS>BOND
     1     7     8    2
     2     8     9   am
     3     9    11    1
     4    11    12    1
     5    12    13    1
     6    13    14    1
     7    14    15    1
     8    15    16    1
     9    16    17    1
    10     8     1    1
    11     1     2   ar
    12     2     3   ar
    13     3     4   ar
    14     4    22    1
    15    22    24    1
    16    24    25   ar
    17    25    26   ar
    18    26    27   ar
    19    27    28   ar
    20    28    29    1
    21    28    30   ar
    22     4     5   ar
    23     5     6   ar
    24     6    18    1
    25    18    19    1
    26    18    20    1
    27    18    21    1
    28    17    12    1
    29     6     1   ar
    30    30    24   ar
    31     9    10    1
    32    22    23    1
@<TRIPOS>MOLECULE
*****
 30 32 0 0 0
SMALL
GASTEIGER

@<TRIPOS>ATOM
      1 C          63.1851   89.0548   12.2117 C.ar    1  UNL1        0.0942
      2 C          63.9459   88.7034   13.4558 C.ar    1  UNL1        0.1078
      3 N          63.9202   87.2978   13.9787 N.ar    1  UNL1       -0.2119
      4 C          63.1338   86.2435   13.2575 C.ar    1  UNL1        0.2206
      5 N          62.3730   86.5949   12.0134 N.ar    1  UNL1       -0.2094
      6 C          62.3987   88.0006   11.4905 C.ar    1  UNL1        0.1613
      7 O          61.9558   91.0851   11.1547 O.2     1  UNL1       -0.2700
      8 C          63.2107   90.4605   11.6888 C.2     1  UNL1        0.2488
      9 N          64.4913   91.2416   11.6998 N.am    1  UNL1       -0.3008
     10 H          65.3149   90.8317   12.0503 H       1  UNL1        0.1497
     11 C          64.5169   92.6472   11.1769 C.3     1  UNL1        0.0896
     12 C          65.7604   93.1855   10.5334 C.3     1  UNL1        0.0196
     13 C          65.9011   94.6588   10.2892 C.3     1  UNL1        0.0017
     14 C          67.1445   95.1970    9.6457 C.3     1  UNL1        0.0001
     15 C          68.2473   94.2619    9.2463 C.3     1  UNL1        0.0000
     16 C          68.1066   92.7887    9.4904 C.3     1  UNL1        0.0001
     17 C          66.8632   92.2505   10.1340 C.3     1  UNL1        0.0017
     18 C          61.6379   88.3520   10.2464 C.3     1  UNL1        0.4351
     19 F          60.8771   88.7034    9.0024 F       1  UNL1       -0.1644
     20 F          62.8902   88.1943    9.4360 F       1  UNL1       -0.1644
     21 F          60.3856   88.5098   11.0568 F       1  UNL1       -0.1644
     22 N          63.1081   84.8379   13.7804 N.pl3   1  UNL1       -0.2825
     23 H          63.0305   84.6740   14.7481 H       1  UNL1        0.1551
     24 C          63.2008   83.6819   12.8291 C.ar    1  UNL1        0.0513
     25 C          63.7381   83.8914   11.4444 C.ar    1  UNL1        0.0147
     26 C          63.8307   82.7354   10.4930 C.ar    1  UNL1        0.0021
     27 C          63.3861   81.3699   10.9263 C.ar    1  UNL1        0.0115
     28 C          62.8489   81.1604   12.3110 C.ar    1  UNL1        0.0589
     29 CL         62.4042   79.7949   12.7444 Cl      1  UNL1       -0.0822
     30 C          62.7562   82.3164   13.2624 C.ar    1  UNL1        0.0261
@<TRIPOS>BOND
     1     7     8    2
     2     8     9   am
     3     9    11    1
     4    11    12    1
     5    12    13    1
     6    13    14    1
     7    14    15    1
     8    15    16    1
     9    16    17    1
    10     8     1    1
    11     1     2   ar
    12     2     3   ar
    13     3     4   ar
    14     4    22    1
    15    22    24    1
    16    24    25   ar
    17    25    26   ar
    18    26    27   ar
    19    27    28   ar
    20    28    29    1
    21    28    30   ar
    22     4     5   ar
    23     5     6   ar
    24     6    18    1
    25    18    19    1
    26    18    20    1
    27    18    21    1
    28    17    12    1
    29     6     1   ar
    30    30    24   ar
    31     9    10    1
    32    22    23    1
@<TRIPOS>MOLECULE
*****
 30 32 0 0 0
SMALL
GASTEIGER

@<TRIPOS>ATOM
      1 C          63.3276   87.0082   13.0024 C.ar    1  UNL1        0.0942
      2 C          63.0312   88.3051   12.3097 C.ar    1  UNL1        0.1078
      3 N          63.2893   89.6059   13.0106 N.ar    1  UNL1       -0.2119
      4 C          63.8439   89.6098   14.4043 C.ar    1  UNL1        0.2206
      5 N          64.1403   88.3128   15.0971 N.ar    1  UNL1       -0.2094
      6 C          63.8822   87.0119   14.3961 C.ar    1  UNL1        0.1613
      7 O          61.7782   85.4935   11.5690 O.2     1  UNL1       -0.2700
      8 C          63.0695   85.7074   12.3015 C.2     1  UNL1        0.2488
      9 N          64.1028   84.6204   12.3332 N.am    1  UNL1       -0.3008
     10 H          64.9504   84.7608   12.8140 H       1  UNL1        0.1497
     11 C          63.8447   83.3197   11.6323 C.3     1  UNL1        0.0896
     12 C          63.1186   82.2160   12.3428 C.3     1  UNL1        0.0196
     13 C          63.1464   80.8221   11.7894 C.3     1  UNL1        0.0017
     14 C          62.4203   79.7185   12.4999 C.3     1  UNL1        0.0001
     15 C          61.6663   80.0089   13.7637 C.3     1  UNL1        0.0000
     16 C          61.6385   81.4028   14.3171 C.3     1  UNL1        0.0001
     17 C          62.3646   82.5063   13.6066 C.3     1  UNL1        0.0017
     18 C          64.1786   85.7150   15.0889 C.3     1  UNL1        0.4351
     19 F          64.4751   84.4180   15.7817 F       1  UNL1       -0.1644
     20 F          62.7147   85.5210   15.3522 F       1  UNL1       -0.1644
     21 F          65.6426   85.9089   14.8256 F       1  UNL1       -0.1644
     22 N          64.1020   90.9105   15.1052 N.pl3   1  UNL1       -0.2825
     23 H          63.3773   91.3538   15.6028 H       1  UNL1        0.1551
     24 C          65.4642   91.5359   15.0480 C.ar    1  UNL1        0.0513
     25 C          65.9348   92.4124   16.1706 C.ar    1  UNL1        0.0147
     26 C          67.2970   93.0378   16.1134 C.ar    1  UNL1        0.0021
     27 C          68.1886   92.7867   14.9336 C.ar    1  UNL1        0.0115
     28 C          67.7180   91.9103   13.8110 C.ar    1  UNL1        0.0589
     29 CL         68.6096   91.6591   12.6312 Cl      1  UNL1       -0.0822
     30 C          66.3558   91.2849   13.8682 C.ar    1  UNL1        0.0261
@<TRIPOS>BOND
     1     7     8    2
     2     8     9   am
     3     9    11    1
     4    11    12    1
     5    12    13    1
     6    13    14    1
     7    14    15    1
     8    15    16    1
     9    16    17    1
    10     8     1    1
    11     1     2   ar
    12     2     3   ar
    13     3     4   ar
    14     4    22    1
    15    22    24    1
    16    24    25   ar
    17    25    26   ar
    18    26    27   ar
    19    27    28   ar
    20    28    29    1
    21    28    30   ar
    22     4     5   ar
    23     5     6   ar
    24     6    18    1
    25    18    19    1
    26    18    20    1
    27    18    21    1
    28    17    12    1
    29     6     1   ar
    30    30    24   ar
    31     9    10    1
    32    22    23    1
@<TRIPOS>MOLECULE
*****
 30 32 0 0 0
SMALL
GASTEIGER

@<TRIPOS>ATOM
      1 C          60.3632   87.6988    9.0752 C.ar    1  UNL1        0.0942
      2 C          60.4368   88.4525   10.3701 C.ar    1  UNL1        0.1078
      3 N          61.2648   87.9200   11.5018 N.ar    1  UNL1       -0.2119
      4 C          62.0193   86.6338   11.3386 C.ar    1  UNL1        0.2206
      5 N          61.9457   85.8802   10.0438 N.ar    1  UNL1       -0.2094
      6 C          61.1177   86.4127    8.9121 C.ar    1  UNL1        0.1613
      7 O          58.3027   87.4970    7.5057 O.2     1  UNL1       -0.2700
      8 C          59.5352   88.2313    7.9435 C.2     1  UNL1        0.2488
      9 N          59.9396   89.4982    7.2496 N.am    1  UNL1       -0.3008
     10 H          60.7486   89.9802    7.5369 H       1  UNL1        0.1497
     11 C          59.1116   90.0307    6.1179 C.3     1  UNL1        0.0896
     12 C          59.7409   90.9070    5.0757 C.3     1  UNL1        0.0196
     13 C          58.9105   91.9233    4.3493 C.3     1  UNL1        0.0017
     14 C          59.5398   92.7995    3.3072 C.3     1  UNL1        0.0001
     15 C          60.9995   92.6595    2.9914 C.3     1  UNL1        0.0000
     16 C          61.8298   91.6433    3.7177 C.3     1  UNL1        0.0001
     17 C          61.2006   90.7670    4.7599 C.3     1  UNL1        0.0017
     18 C          61.0441   85.6591    7.6172 C.3     1  UNL1        0.4351
     19 F          60.9705   84.9054    6.3224 F       1  UNL1       -0.1644
     20 F          62.5324   85.7707    7.4677 F       1  UNL1       -0.1644
     21 F          59.5557   85.5475    7.7668 F       1  UNL1       -0.1644
     22 N          62.8474   86.1013   12.4703 N.pl3   1  UNL1       -0.2825
     23 H          63.4556   86.7010   12.9598 H       1  UNL1        0.1551
     24 C          62.7486   84.6552   12.8562 C.ar    1  UNL1        0.0513
     25 C          62.4949   84.2758   14.2851 C.ar    1  UNL1        0.0147
     26 C          62.3961   82.8297   14.6710 C.ar    1  UNL1        0.0021
     27 C          62.5511   81.7629   13.6280 C.ar    1  UNL1        0.0115
     28 C          62.8049   82.1422   12.1992 C.ar    1  UNL1        0.0589
     29 CL         62.9599   81.0754   11.1561 Cl      1  UNL1       -0.0822
     30 C          62.9036   83.5883   11.8133 C.ar    1  UNL1        0.0261
@<TRIPOS>BOND
     1     7     8    2
     2     8     9   am
     3     9    11    1
     4    11    12    1
     5    12    13    1
     6    13    14    1
     7    14    15    1
     8    15    16    1
     9    16    17    1
    10     8     1    1
    11     1     2   ar
    12     2     3   ar
    13     3     4   ar
    14     4    22    1
    15    22    24    1
    16    24    25   ar
    17    25    26   ar
    18    26    27   ar
    19    27    28   ar
    20    28    29    1
    21    28    30   ar
    22     4     5   ar
    23     5     6   ar
    24     6    18    1
    25    18    19    1
    26    18    20    1
    27    18    21    1
    28    17    12    1
    29     6     1   ar
    30    30    24   ar
    31     9    10    1
    32    22    23    1
