@<TRIPOS>MOLECULE
*****
 35 38 0 0 0
SMALL
GASTEIGER

@<TRIPOS>ATOM
      1 N          62.0740   87.0142   10.2315 N.ar    1  UNL1       -0.2994
      2 C          62.5254   85.9299   11.1645 C.ar    1  UNL1        0.2039
      3 N          63.1319   86.5806   12.3723 N.ar    1  UNL1       -0.2135
      4 C          63.0554   88.0670   12.1857 C.ar    1  UNL1        0.0996
      5 C          63.4966   89.2110   13.0496 C.ar    1  UNL1        0.0178
      6 C          63.2839   90.6230   12.5905 C.ar    1  UNL1       -0.0045
      7 C          62.6301   90.8910   11.2674 C.ar    1  UNL1       -0.0013
      8 C          62.1889   89.7470   10.4034 C.ar    1  UNL1        0.0185
      9 C          62.4015   88.3349   10.8626 C.ar    1  UNL1        0.0798
     10 N          62.3934   84.4541   10.9308 N.am    1  UNL1       -0.2518
     11 C          63.2404   83.4926   11.7105 C.2     1  UNL1        0.2516
     12 O          64.2195   84.0069   12.7240 O.2     1  UNL1       -0.2697
     13 H          61.7509   84.1166   10.2656 H       1  UNL1        0.1580
     14 C          63.1084   82.0168   11.4768 C.ar    1  UNL1        0.0538
     15 C          62.7752   81.1034   12.6191 C.ar    1  UNL1        0.0052
     16 C          62.6432   79.6276   12.3854 C.ar    1  UNL1        0.0104
     17 C          62.8445   79.0652   11.0094 C.ar    1  UNL1        0.0685
     18 C          63.1778   79.9786    9.8672 C.ar    1  UNL1        0.0104
     19 C          63.3097   81.4544   10.1009 C.ar    1  UNL1        0.0052
     20 C          62.7126   77.5894   10.7757 C.1     1  UNL1        0.1004
     21 N          62.5806   76.1136   10.5420 N.1     1  UNL1       -0.1908
     22 C          61.4113   86.8130    8.9009 C.3     1  UNL1        0.1113
     23 C          59.9160   86.7370    8.8115 C.3     1  UNL1        0.0566
     24 C          59.1794   87.5896    7.8213 C.3     1  UNL1        0.1443
     25 C          59.3343   89.6754    6.2801 C.3     1  UNL1        0.1741
     26 O          59.5972   89.0131    7.6001 O.3     1  UNL1       -0.3510
     27 C          63.7252   91.7672   13.4544 C.3     1  UNL1        0.0992
     28 N          64.4698   91.5008   14.7290 N.3     1  UNL1       -0.2691
     29 C          63.7717   90.8424   15.8819 C.3     1  UNL1        0.0899
     30 C          65.9126   91.8929   14.8507 C.3     1  UNL1        0.0578
     31 C          66.4119   92.5334   16.1118 C.3     1  UNL1        0.0160
     32 C          67.8547   92.9254   16.2334 C.3     1  UNL1        0.0014
     33 C          68.7980   92.6770   15.0939 C.3     1  UNL1        0.0001
     34 C          68.2986   92.0365   13.8328 C.3     1  UNL1        0.0014
     35 C          66.8559   91.6445   13.7112 C.3     1  UNL1        0.0160
@<TRIPOS>BOND
     1    25    26    1
     2    26    24    1
     3    24    23    1
     4    23    22    1
     5    22     1    1
     6     1     2   ar
     7     2    10    1
     8    10    11   am
     9    11    12    2
    10    11    14    1
    11    14    15   ar
    12    15    16   ar
    13    16    17   ar
    14    17    20    1
    15    20    21    3
    16    17    18   ar
    17    18    19   ar
    18     2     3   ar
    19     3     4   ar
    20     4     5   ar
    21     5     6   ar
    22     6    27    1
    23    27    28    1
    24    28    29    1
    25    28    30    1
    26    30    31    1
    27    31    32    1
    28    32    33    1
    29    33    34    1
    30    34    35    1
    31     6     7   ar
    32     7     8   ar
    33     8     9   ar
    34     9     1   ar
    35    19    14   ar
    36     9     4   ar
    37    35    30    1
    38    10    13    1
@<TRIPOS>MOLECULE
*****
 35 38 0 0 0
SMALL
GASTEIGER

@<TRIPOS>ATOM
      1 N          62.6894   87.6198   11.5176 N.ar    1  UNL1       -0.2994
      2 C          63.1075   86.4022   12.2875 C.ar    1  UNL1        0.2039
      3 N          63.8372   86.8586   13.5160 N.ar    1  UNL1       -0.2135
      4 C          63.8700   88.3583   13.5055 C.ar    1  UNL1        0.0996
      5 C          64.4542   89.3561   14.4609 C.ar    1  UNL1        0.0178
      6 C          64.3290   90.8245   14.1812 C.ar    1  UNL1       -0.0045
      7 C          63.6196   91.2949   12.9461 C.ar    1  UNL1       -0.0013
      8 C          63.0354   90.2970   11.9907 C.ar    1  UNL1        0.0185
      9 C          63.1606   88.8287   12.2704 C.ar    1  UNL1        0.0798
     10 N          62.8426   84.9783   11.8973 N.am    1  UNL1       -0.2518
     11 C          63.7004   83.8778   12.4477 C.2     1  UNL1        0.2516
     12 O          64.8232   84.2012   13.3884 O.2     1  UNL1       -0.2697
     13 H          62.1056   84.7661   11.2800 H       1  UNL1        0.1580
     14 C          63.4354   82.4539   12.0576 C.ar    1  UNL1        0.0538
     15 C          63.0164   81.4569   13.0971 C.ar    1  UNL1        0.0052
     16 C          62.7514   80.0330   12.7070 C.ar    1  UNL1        0.0104
     17 C          62.9054   79.6060   11.2772 C.ar    1  UNL1        0.0685
     18 C          63.3243   80.6030   10.2378 C.ar    1  UNL1        0.0104
     19 C          63.5893   82.0269   10.6279 C.ar    1  UNL1        0.0052
     20 C          62.6404   78.1821   10.8871 C.1     1  UNL1        0.1004
     21 N          62.3754   76.7582   10.4969 N.1     1  UNL1       -0.1908
     22 C          61.9329   87.6272   10.2224 C.3     1  UNL1        0.1113
     23 C          60.4870   88.0257   10.2006 C.3     1  UNL1        0.0566
     24 C          60.0624   89.2690    9.4768 C.3     1  UNL1        0.1443
     25 C          59.3148   90.5752   11.5945 C.3     1  UNL1        0.1741
     26 O          59.9251   90.5622   10.2243 O.3     1  UNL1       -0.3510
     27 C          64.9131   91.8225   15.1367 C.3     1  UNL1        0.0992
     28 N          66.2078   92.5054   14.8092 N.3     1  UNL1       -0.2691
     29 C          67.1089   92.9740   15.9131 C.3     1  UNL1        0.0899
     30 C          66.6015   92.7199   13.3777 C.3     1  UNL1        0.0578
     31 C          67.5623   91.7778   12.7149 C.3     1  UNL1        0.0160
     32 C          67.9559   91.9922   11.2834 C.3     1  UNL1        0.0014
     33 C          67.3888   93.1487   10.5148 C.3     1  UNL1        0.0001
     34 C          66.4280   94.0909   11.1776 C.3     1  UNL1        0.0014
     35 C          66.0344   93.8764   12.6091 C.3     1  UNL1        0.0160
@<TRIPOS>BOND
     1    25    26    1
     2    26    24    1
     3    24    23    1
     4    23    22    1
     5    22     1    1
     6     1     2   ar
     7     2    10    1
     8    10    11   am
     9    11    12    2
    10    11    14    1
    11    14    15   ar
    12    15    16   ar
    13    16    17   ar
    14    17    20    1
    15    20    21    3
    16    17    18   ar
    17    18    19   ar
    18     2     3   ar
    19     3     4   ar
    20     4     5   ar
    21     5     6   ar
    22     6    27    1
    23    27    28    1
    24    28    29    1
    25    28    30    1
    26    30    31    1
    27    31    32    1
    28    32    33    1
    29    33    34    1
    30    34    35    1
    31     6     7   ar
    32     7     8   ar
    33     8     9   ar
    34     9     1   ar
    35    19    14   ar
    36     9     4   ar
    37    35    30    1
    38    10    13    1
@<TRIPOS>MOLECULE
*****
 35 38 0 0 0
SMALL
GASTEIGER

@<TRIPOS>ATOM
      1 N          62.6696   87.6409   11.5245 N.ar    1  UNL1       -0.2994
      2 C          63.1084   86.4205   12.2781 C.ar    1  UNL1        0.2039
      3 N          63.8545   86.8727   13.4983 N.ar    1  UNL1       -0.2135
      4 C          63.8769   88.3725   13.4987 C.ar    1  UNL1        0.0996
      5 C          64.4695   89.3672   14.4523 C.ar    1  UNL1        0.0178
      6 C          64.3298   90.8367   14.1860 C.ar    1  UNL1       -0.0045
      7 C          63.5975   91.3115   12.9661 C.ar    1  UNL1       -0.0013
      8 C          63.0049   90.3168   12.0125 C.ar    1  UNL1        0.0185
      9 C          63.1446   88.8473   12.2788 C.ar    1  UNL1        0.0798
     10 N          62.8469   84.9978   11.8813 N.am    1  UNL1       -0.2518
     11 C          63.6964   83.8951   12.4402 C.2     1  UNL1        0.2516
     12 O          64.8075   84.2151   13.3958 O.2     1  UNL1       -0.2697
     13 H          62.1177   84.7878   11.2541 H       1  UNL1        0.1580
     14 C          63.4349   82.4723   12.0434 C.ar    1  UNL1        0.0538
     15 C          63.6060   82.0486   10.6146 C.ar    1  UNL1        0.0052
     16 C          63.3445   80.6259   10.2178 C.ar    1  UNL1        0.0104
     17 C          62.9119   79.6269   11.2498 C.ar    1  UNL1        0.0685
     18 C          62.7409   80.0506   12.6784 C.ar    1  UNL1        0.0104
     19 C          63.0024   81.4733   13.0752 C.ar    1  UNL1        0.0052
     20 C          62.6505   78.2041   10.8530 C.1     1  UNL1        0.1004
     21 N          62.3890   76.7814   10.4562 N.1     1  UNL1       -0.1908
     22 C          61.8924   87.6529   10.2416 C.3     1  UNL1        0.1113
     23 C          60.5304   88.2795   10.1957 C.3     1  UNL1        0.0566
     24 C          60.0851   89.0171    8.9678 C.3     1  UNL1        0.1443
     25 C          59.0103   86.9393    7.8375 C.3     1  UNL1        0.1741
     26 O          59.7188   88.2568    7.7277 O.3     1  UNL1       -0.3510
     27 C          64.9224   91.8314   15.1396 C.3     1  UNL1        0.0992
     28 N          66.2171   92.5113   14.8056 N.3     1  UNL1       -0.2691
     29 C          67.1384   92.9514   15.9044 C.3     1  UNL1        0.0899
     30 C          66.5905   92.7510   13.3727 C.3     1  UNL1        0.0578
     31 C          67.5333   91.8147   12.6766 C.3     1  UNL1        0.0160
     32 C          67.9066   92.0545   11.2437 C.3     1  UNL1        0.0014
     33 C          67.3371   93.2304   10.5070 C.3     1  UNL1        0.0001
     34 C          66.3944   94.1667   11.2030 C.3     1  UNL1        0.0014
     35 C          66.0210   93.9269   12.6359 C.3     1  UNL1        0.0160
@<TRIPOS>BOND
     1    25    26    1
     2    26    24    1
     3    24    23    1
     4    23    22    1
     5    22     1    1
     6     1     2   ar
     7     2    10    1
     8    10    11   am
     9    11    12    2
    10    11    14    1
    11    14    15   ar
    12    15    16   ar
    13    16    17   ar
    14    17    20    1
    15    20    21    3
    16    17    18   ar
    17    18    19   ar
    18     2     3   ar
    19     3     4   ar
    20     4     5   ar
    21     5     6   ar
    22     6    27    1
    23    27    28    1
    24    28    29    1
    25    28    30    1
    26    30    31    1
    27    31    32    1
    28    32    33    1
    29    33    34    1
    30    34    35    1
    31     6     7   ar
    32     7     8   ar
    33     8     9   ar
    34     9     1   ar
    35    19    14   ar
    36     9     4   ar
    37    35    30    1
    38    10    13    1
@<TRIPOS>MOLECULE
*****
 35 38 0 0 0
SMALL
GASTEIGER

@<TRIPOS>ATOM
      1 N          63.8034   85.8115   14.0972 N.ar    1  UNL1       -0.2994
      2 C          63.1239   85.2876   12.8668 C.ar    1  UNL1        0.2039
      3 N          62.8084   86.4547   11.9790 N.ar    1  UNL1       -0.2135
      4 C          63.2928   87.7000   12.6607 C.ar    1  UNL1        0.0996
      5 C          63.2533   89.1445   12.2586 C.ar    1  UNL1        0.0178
      6 C          63.8289   90.1914   13.1655 C.ar    1  UNL1       -0.0045
      7 C          64.4439   89.7939   14.4746 C.ar    1  UNL1       -0.0013
      8 C          64.4833   88.3494   14.8767 C.ar    1  UNL1        0.0185
      9 C          63.9078   87.3024   13.9698 C.ar    1  UNL1        0.0798
     10 N          62.8144   83.8491   12.5754 N.am    1  UNL1       -0.2518
     11 C          63.7532   83.0353   11.7349 C.2     1  UNL1        0.2516
     12 O          65.0016   83.6599   11.1859 O.2     1  UNL1       -0.2697
     13 H          61.9951   83.4391   12.9357 H       1  UNL1        0.1580
     14 C          63.4436   81.5968   11.4435 C.ar    1  UNL1        0.0538
     15 C          63.5152   81.0846   10.0354 C.ar    1  UNL1        0.0052
     16 C          63.2056   79.6461    9.7440 C.ar    1  UNL1        0.0104
     17 C          62.8246   78.7198   10.8606 C.ar    1  UNL1        0.0685
     18 C          62.7530   79.2320   12.2686 C.ar    1  UNL1        0.0104
     19 C          63.0626   80.6705   12.5601 C.ar    1  UNL1        0.0052
     20 C          62.5150   77.2813   10.5692 C.1     1  UNL1        0.1004
     21 N          62.2055   75.8428   10.2778 N.1     1  UNL1       -0.1908
     22 C          64.2927   84.9889   15.2521 C.3     1  UNL1        0.1113
     23 C          63.3383   84.5658   16.3292 C.3     1  UNL1        0.0566
     24 C          61.9428   85.1154   16.3531 C.3     1  UNL1        0.1443
     25 C          62.6782   86.9951   17.9890 C.3     1  UNL1        0.1741
     26 O          61.5915   86.2293   17.2943 O.3     1  UNL1       -0.3510
     27 C          63.7895   91.6360   12.7633 C.3     1  UNL1        0.0992
     28 N          65.0680   92.3834   12.5251 N.3     1  UNL1       -0.2691
     29 C          65.2821   93.1097   11.2303 C.3     1  UNL1        0.0899
     30 C          66.1326   92.4044   13.5817 C.3     1  UNL1        0.0578
     31 C          65.7891   92.8099   14.9844 C.3     1  UNL1        0.0160
     32 C          66.8536   92.8309   16.0410 C.3     1  UNL1        0.0014
     33 C          68.2616   92.4463   15.6949 C.3     1  UNL1        0.0001
     34 C          68.6050   92.0407   14.2922 C.3     1  UNL1        0.0014
     35 C          67.5405   92.0197   13.2356 C.3     1  UNL1        0.0160
@<TRIPOS>BOND
     1    25    26    1
     2    26    24    1
     3    24    23    1
     4    23    22    1
     5    22     1    1
     6     1     2   ar
     7     2    10    1
     8    10    11   am
     9    11    12    2
    10    11    14    1
    11    14    15   ar
    12    15    16   ar
    13    16    17   ar
    14    17    20    1
    15    20    21    3
    16    17    18   ar
    17    18    19   ar
    18     2     3   ar
    19     3     4   ar
    20     4     5   ar
    21     5     6   ar
    22     6    27    1
    23    27    28    1
    24    28    29    1
    25    28    30    1
    26    30    31    1
    27    31    32    1
    28    32    33    1
    29    33    34    1
    30    34    35    1
    31     6     7   ar
    32     7     8   ar
    33     8     9   ar
    34     9     1   ar
    35    19    14   ar
    36     9     4   ar
    37    35    30    1
    38    10    13    1
@<TRIPOS>MOLECULE
*****
 35 38 0 0 0
SMALL
GASTEIGER

@<TRIPOS>ATOM
      1 N          63.8437   86.2512   14.0376 N.ar    1  UNL1       -0.2994
      2 C          63.2122   85.8135   12.7494 C.ar    1  UNL1        0.2039
      3 N          63.0003   87.0315   11.8999 N.ar    1  UNL1       -0.2135
      4 C          63.5007   88.2218   12.6631 C.ar    1  UNL1        0.0996
      5 C          63.5491   89.6826   12.3257 C.ar    1  UNL1        0.0178
      6 C          64.1188   90.6610   13.3096 C.ar    1  UNL1       -0.0045
      7 C          64.6401   90.1788   14.6308 C.ar    1  UNL1       -0.0013
      8 C          64.5917   88.7180   14.9682 C.ar    1  UNL1        0.0185
      9 C          64.0220   87.7396   13.9844 C.ar    1  UNL1        0.0798
     10 N          62.8554   84.4052   12.3761 N.am    1  UNL1       -0.2518
     11 C          63.9297   83.3649   12.2599 C.2     1  UNL1        0.2516
     12 O          65.3610   83.7330   12.5169 O.2     1  UNL1       -0.2697
     13 H          61.9160   84.1637   12.2074 H       1  UNL1        0.1580
     14 C          63.5728   81.9566   11.8866 C.ar    1  UNL1        0.0538
     15 C          63.1599   80.9810   12.9486 C.ar    1  UNL1        0.0052
     16 C          62.8031   79.5727   12.5753 C.ar    1  UNL1        0.0104
     17 C          62.8591   79.1400   11.1401 C.ar    1  UNL1        0.0685
     18 C          63.2720   80.1157   10.0782 C.ar    1  UNL1        0.0104
     19 C          63.6289   81.5240   10.4515 C.ar    1  UNL1        0.0052
     20 C          62.5022   77.7317   10.7669 C.1     1  UNL1        0.1004
     21 N          62.1454   76.3234   10.3936 N.1     1  UNL1       -0.1908
     22 C          64.2292   85.3573   15.1789 C.3     1  UNL1        0.1113
     23 C          63.1765   84.5785   15.9103 C.3     1  UNL1        0.0566
     24 C          61.7938   85.1411   16.0575 C.3     1  UNL1        0.1443
     25 C          62.6075   86.6390   18.0182 C.3     1  UNL1        0.1741
     26 O          61.4983   86.1294   17.1466 O.3     1  UNL1       -0.3510
     27 C          64.1673   92.1219   12.9722 C.3     1  UNL1        0.0992
     28 N          65.4624   92.8720   13.0716 N.3     1  UNL1       -0.2691
     29 C          66.0713   93.1425   14.4154 C.3     1  UNL1        0.0899
     30 C          66.1487   93.3516   11.8269 C.3     1  UNL1        0.0578
     31 C          66.9003   92.3821   10.9638 C.3     1  UNL1        0.0160
     32 C          67.5865   92.8618    9.7192 C.3     1  UNL1        0.0014
     33 C          67.5211   94.3110    9.3378 C.3     1  UNL1        0.0001
     34 C          66.7695   95.2806   10.2009 C.3     1  UNL1        0.0014
     35 C          66.0833   94.8009   11.4455 C.3     1  UNL1        0.0160
@<TRIPOS>BOND
     1    25    26    1
     2    26    24    1
     3    24    23    1
     4    23    22    1
     5    22     1    1
     6     1     2   ar
     7     2    10    1
     8    10    11   am
     9    11    12    2
    10    11    14    1
    11    14    15   ar
    12    15    16   ar
    13    16    17   ar
    14    17    20    1
    15    20    21    3
    16    17    18   ar
    17    18    19   ar
    18     2     3   ar
    19     3     4   ar
    20     4     5   ar
    21     5     6   ar
    22     6    27    1
    23    27    28    1
    24    28    29    1
    25    28    30    1
    26    30    31    1
    27    31    32    1
    28    32    33    1
    29    33    34    1
    30    34    35    1
    31     6     7   ar
    32     7     8   ar
    33     8     9   ar
    34     9     1   ar
    35    19    14   ar
    36     9     4   ar
    37    35    30    1
    38    10    13    1
