@<TRIPOS>MOLECULE
*****
 33 37 0 0 0
SMALL
GASTEIGER

@<TRIPOS>ATOM
      1 C          62.7415   86.8940   11.8940 C.2     1  UNL1        0.2506
      2 O          63.5179   87.5027   13.0238 O.2     1  UNL1       -0.2699
      3 N          61.7593   87.7267   11.1247 N.am    1  UNL1       -0.2723
      4 C          60.9828   87.1180    9.9948 C.3     1  UNL1        0.1257
      5 C          60.0006   87.9507    9.2255 C.3     1  UNL1        0.1637
      6 O          59.7947   89.3920    9.5862 O.3     1  UNL1       -0.3502
      7 C          60.5711   90.0007   10.7160 C.3     1  UNL1        0.1622
      8 C          61.5534   89.1681   11.4853 C.3     1  UNL1        0.1097
      9 C          63.5650   81.1285   10.4514 C.3     1  UNL1        0.0311
     10 C          63.3592   82.5699   10.8121 C.ar    1  UNL1       -0.0203
     11 C          63.1931   83.5970    9.7316 C.ar    1  UNL1       -0.0040
     12 C          62.9873   85.0384   10.0923 C.ar    1  UNL1        0.0058
     13 C          62.9474   85.4526   11.5333 C.ar    1  UNL1        0.0729
     14 C          63.1134   84.4255   12.6138 C.ar    1  UNL1        0.1069
     15 C          63.3193   82.9841   12.2531 C.ar    1  UNL1        0.0168
     16 N          63.0736   84.8398   14.0550 N.ar    1  UNL1       -0.1477
     17 N          61.8778   84.7748   14.9583 N.ar    1  UNL1       -0.1447
     18 C          62.2876   85.2865   16.3074 C.ar    1  UNL1        0.1446
     19 C          63.7368   85.6678   16.2378 C.ar    1  UNL1        0.1446
     20 N          64.2225   85.3917   14.8458 N.ar    1  UNL1       -0.1447
     21 C          62.3298   89.7768   12.6152 C.3     1  UNL1        0.0510
     22 C          63.4573   90.7230   12.3264 C.ar    1  UNL1        0.0071
     23 C          64.3532   91.1836   13.4377 C.ar    1  UNL1        0.0012
     24 C          65.4807   92.1299   13.1489 C.ar    1  UNL1        0.0389
     25 C          65.7122   92.6155   11.7487 C.ar    1  UNL1        0.0054
     26 C          64.8163   92.1549   10.6374 C.ar    1  UNL1        0.0294
     27 C          63.6888   91.2087   10.9262 C.ar    1  UNL1        0.1362
     28 F          62.7928   90.7481    9.8148 F       1  UNL1       -0.2045
     29 C          66.3766   92.5905   14.2603 C.ar    1  UNL1        0.2037
     30 N          67.8391   92.9024   14.1421 N.ar    1  UNL1       -0.1829
     31 C          68.3338   93.3247   15.4937 C.ar    1  UNL1        0.3164
     32 O          67.1770   93.2738   16.4473 O.2     1  UNL1       -0.3274
     33 N          65.9674   92.8201   15.6850 N.ar    1  UNL1       -0.0554
@<TRIPOS>BOND
     1     9    10    1
     2    10    11   ar
     3    11    12   ar
     4    12    13   ar
     5    13     1    1
     6     1     2    2
     7     1     3   am
     8     3     4    1
     9     4     5    1
    10     5     6    1
    11     6     7    1
    12     7     8    1
    13     8    21    1
    14    21    22    1
    15    22    23   ar
    16    23    24   ar
    17    24    29    1
    18    29    30   ar
    19    30    31   ar
    20    31    32   ar
    21    32    33   ar
    22    24    25   ar
    23    25    26   ar
    24    26    27   ar
    25    27    28    1
    26    13    14   ar
    27    14    16    1
    28    16    17   ar
    29    17    18   ar
    30    18    19   ar
    31    19    20   ar
    32    14    15   ar
    33    15    10   ar
    34     8     3    1
    35    27    22   ar
    36    20    16   ar
    37    33    29   ar
@<TRIPOS>MOLECULE
*****
 33 37 0 0 0
SMALL
GASTEIGER

@<TRIPOS>ATOM
      1 C          62.9830   87.0744   12.2618 C.2     1  UNL1        0.2506
      2 O          63.5755   87.4869   13.5766 O.2     1  UNL1       -0.2699
      3 N          62.2965   88.0898   11.3971 N.am    1  UNL1       -0.2723
      4 C          61.7039   87.6774   10.0822 C.3     1  UNL1        0.1257
      5 C          61.0175   88.6927    9.2174 C.3     1  UNL1        0.1637
      6 O          60.9236   90.1205    9.6675 O.3     1  UNL1       -0.3502
      7 C          61.5161   90.5330   10.9823 C.3     1  UNL1        0.1622
      8 C          62.2026   89.5176   11.8471 C.3     1  UNL1        0.1097
      9 C          63.3586   81.3632   10.4614 C.3     1  UNL1        0.0311
     10 C          63.2647   82.7910   10.9115 C.ar    1  UNL1       -0.0203
     11 C          63.1948   83.8940    9.8974 C.ar    1  UNL1       -0.0040
     12 C          63.1009   85.3218   10.3475 C.ar    1  UNL1        0.0058
     13 C          63.0769   85.6466   11.8117 C.ar    1  UNL1        0.0729
     14 C          63.1467   84.5436   12.8258 C.ar    1  UNL1        0.1069
     15 C          63.2406   83.1158   12.3757 C.ar    1  UNL1        0.0168
     16 N          63.1227   84.8684   14.2901 N.ar    1  UNL1       -0.1477
     17 N          64.3035   85.2691   15.1238 N.ar    1  UNL1       -0.1447
     18 C          63.8243   85.4978   16.5266 C.ar    1  UNL1        0.1446
     19 C          62.3472   85.2385   16.5599 C.ar    1  UNL1        0.1446
     20 N          61.9136   84.8495   15.1776 N.ar    1  UNL1       -0.1447
     21 C          62.7952   89.9300   13.1619 C.3     1  UNL1        0.0510
     22 C          64.0910   90.6848   13.1968 C.ar    1  UNL1        0.0071
     23 C          64.4644   91.5868   12.0581 C.ar    1  UNL1        0.0012
     24 C          65.7602   92.3416   12.0930 C.ar    1  UNL1        0.0389
     25 C          66.6826   92.1942   13.2667 C.ar    1  UNL1        0.0054
     26 C          66.3092   91.2922   14.4054 C.ar    1  UNL1        0.0294
     27 C          65.0133   90.5374   14.3705 C.ar    1  UNL1        0.1362
     28 F          64.6399   89.6353   15.5093 F       1  UNL1       -0.2045
     29 C          66.1337   93.2437   10.9542 C.ar    1  UNL1        0.2037
     30 N          67.1464   92.9453    9.8886 N.ar    1  UNL1       -0.1829
     31 C          67.1986   94.1197    8.9569 C.ar    1  UNL1        0.3164
     32 O          66.2181   95.1439    9.4467 O.2     1  UNL1       -0.3274
     33 N          65.5600   94.6025   10.6811 N.ar    1  UNL1       -0.0554
@<TRIPOS>BOND
     1     9    10    1
     2    10    11   ar
     3    11    12   ar
     4    12    13   ar
     5    13     1    1
     6     1     2    2
     7     1     3   am
     8     3     4    1
     9     4     5    1
    10     5     6    1
    11     6     7    1
    12     7     8    1
    13     8    21    1
    14    21    22    1
    15    22    23   ar
    16    23    24   ar
    17    24    29    1
    18    29    30   ar
    19    30    31   ar
    20    31    32   ar
    21    32    33   ar
    22    24    25   ar
    23    25    26   ar
    24    26    27   ar
    25    27    28    1
    26    13    14   ar
    27    14    16    1
    28    16    17   ar
    29    17    18   ar
    30    18    19   ar
    31    19    20   ar
    32    14    15   ar
    33    15    10   ar
    34     8     3    1
    35    27    22   ar
    36    20    16   ar
    37    33    29   ar
@<TRIPOS>MOLECULE
*****
 33 37 0 0 0
SMALL
GASTEIGER

@<TRIPOS>ATOM
      1 C          62.7315   88.9158   11.6127 C.2     1  UNL1        0.2506
      2 O          62.9644   87.7889   12.5750 O.2     1  UNL1       -0.2699
      3 N          61.6809   88.7891   10.5497 N.am    1  UNL1       -0.2723
      4 C          61.4480   89.9160    9.5873 C.3     1  UNL1        0.1257
      5 C          60.3974   89.7893    8.5242 C.3     1  UNL1        0.1637
      6 O          59.5796   88.5359    8.4235 O.3     1  UNL1       -0.3502
      7 C          59.8124   87.4091    9.3858 C.3     1  UNL1        0.1622
      8 C          60.8631   87.5357   10.4489 C.3     1  UNL1        0.1097
      9 C          66.0026   93.9295   12.0157 C.3     1  UNL1        0.0311
     10 C          65.1848   92.6761   11.9150 C.ar    1  UNL1       -0.0203
     11 C          64.6400   92.2407   10.5870 C.ar    1  UNL1       -0.0040
     12 C          63.8223   90.9873   10.4862 C.ar    1  UNL1        0.0058
     13 C          63.5493   90.1692   11.7135 C.ar    1  UNL1        0.0729
     14 C          64.0940   90.6046   13.0415 C.ar    1  UNL1        0.1069
     15 C          64.9118   91.8580   13.1422 C.ar    1  UNL1        0.0168
     16 N          63.8210   89.7865   14.2688 N.ar    1  UNL1       -0.1477
     17 N          62.7947   90.0893   15.3200 N.ar    1  UNL1       -0.1447
     18 C          62.8658   89.0120   16.3613 C.ar    1  UNL1        0.1446
     19 C          63.9361   88.0433   15.9536 C.ar    1  UNL1        0.1446
     20 N          64.5264   88.5220   14.6604 N.ar    1  UNL1       -0.1447
     21 C          61.0960   86.4089   11.4112 C.3     1  UNL1        0.0510
     22 C          62.0030   85.2755   11.0336 C.ar    1  UNL1        0.0071
     23 C          62.1463   84.0936   11.9460 C.ar    1  UNL1        0.0012
     24 C          63.0534   82.9602   11.5684 C.ar    1  UNL1        0.0389
     25 C          63.8172   83.0086   10.2784 C.ar    1  UNL1        0.0054
     26 C          63.6739   84.1905    9.3659 C.ar    1  UNL1        0.0294
     27 C          62.7668   85.3239    9.7435 C.ar    1  UNL1        0.1362
     28 F          62.6235   86.5058    8.8310 F       1  UNL1       -0.2045
     29 C          63.1966   81.7782   12.4809 C.ar    1  UNL1        0.2037
     30 N          62.5066   80.4555   12.3253 N.ar    1  UNL1       -0.1829
     31 C          62.9386   79.5713   13.4574 C.ar    1  UNL1        0.3164
     32 O          63.8955   80.3477   14.3128 O.2     1  UNL1       -0.3274
     33 N          64.0550   81.7116   13.7092 N.ar    1  UNL1       -0.0554
@<TRIPOS>BOND
     1     9    10    1
     2    10    11   ar
     3    11    12   ar
     4    12    13   ar
     5    13     1    1
     6     1     2    2
     7     1     3   am
     8     3     4    1
     9     4     5    1
    10     5     6    1
    11     6     7    1
    12     7     8    1
    13     8    21    1
    14    21    22    1
    15    22    23   ar
    16    23    24   ar
    17    24    29    1
    18    29    30   ar
    19    30    31   ar
    20    31    32   ar
    21    32    33   ar
    22    24    25   ar
    23    25    26   ar
    24    26    27   ar
    25    27    28    1
    26    13    14   ar
    27    14    16    1
    28    16    17   ar
    29    17    18   ar
    30    18    19   ar
    31    19    20   ar
    32    14    15   ar
    33    15    10   ar
    34     8     3    1
    35    27    22   ar
    36    20    16   ar
    37    33    29   ar
@<TRIPOS>MOLECULE
*****
 33 37 0 0 0
SMALL
GASTEIGER

@<TRIPOS>ATOM
      1 C          63.4268   87.4928   13.1412 C.2     1  UNL1        0.2506
      2 O          63.3988   88.1636   11.7998 O.2     1  UNL1       -0.2699
      3 N          63.3497   88.3157   14.3929 N.am    1  UNL1       -0.2723
      4 C          63.3777   87.6449   15.7344 C.3     1  UNL1        0.1257
      5 C          63.3006   88.4678   16.9861 C.3     1  UNL1        0.1637
      6 O          63.1955   89.9614   16.8965 O.3     1  UNL1       -0.3502
      7 C          63.1675   90.6322   15.5551 C.3     1  UNL1        0.1622
      8 C          63.2446   89.8093   14.3033 C.3     1  UNL1        0.1097
      9 C          63.8473   81.5183   13.4997 C.3     1  UNL1        0.0311
     10 C          63.7422   83.0119   13.4100 C.ar    1  UNL1       -0.0203
     11 C          64.4252   83.8744   14.4296 C.ar    1  UNL1       -0.0040
     12 C          64.3201   85.3680   14.3400 C.ar    1  UNL1        0.0058
     13 C          63.5319   85.9992   13.2308 C.ar    1  UNL1        0.0729
     14 C          62.8489   85.1367   12.2112 C.ar    1  UNL1        0.1069
     15 C          62.9540   83.6431   12.3008 C.ar    1  UNL1        0.0168
     16 N          62.0608   85.7679   11.1019 N.ar    1  UNL1       -0.1477
     17 N          62.3574   85.6569    9.6357 N.ar    1  UNL1       -0.1447
     18 C          61.3176   86.4412    8.8917 C.ar    1  UNL1        0.1446
     19 C          60.3783   87.0370    9.8981 C.ar    1  UNL1        0.1446
     20 N          60.8376   86.6209   11.2640 N.ar    1  UNL1       -0.1447
     21 C          63.2166   90.4801   12.9620 C.3     1  UNL1        0.0510
     22 C          64.3609   91.3507   12.5347 C.ar    1  UNL1        0.0071
     23 C          65.4463   91.6954   13.5110 C.ar    1  UNL1        0.0012
     24 C          66.5906   92.5660   13.0838 C.ar    1  UNL1        0.0389
     25 C          66.6496   93.0920   11.6803 C.ar    1  UNL1        0.0054
     26 C          65.5642   92.7473   10.7040 C.ar    1  UNL1        0.0294
     27 C          64.4199   91.8766   11.1312 C.ar    1  UNL1        0.1362
     28 F          63.3345   91.5320   10.1549 F       1  UNL1       -0.2045
     29 C          67.6760   92.9107   14.0601 C.ar    1  UNL1        0.2037
     30 N          67.5374   93.8134   15.2501 N.ar    1  UNL1       -0.1829
     31 C          68.8662   93.8739   15.9434 C.ar    1  UNL1        0.3164
     32 O          69.8260   93.0085   15.1818 O.2     1  UNL1       -0.3274
     33 N          69.0904   92.4132   14.0180 N.ar    1  UNL1       -0.0554
@<TRIPOS>BOND
     1     9    10    1
     2    10    11   ar
     3    11    12   ar
     4    12    13   ar
     5    13     1    1
     6     1     2    2
     7     1     3   am
     8     3     4    1
     9     4     5    1
    10     5     6    1
    11     6     7    1
    12     7     8    1
    13     8    21    1
    14    21    22    1
    15    22    23   ar
    16    23    24   ar
    17    24    29    1
    18    29    30   ar
    19    30    31   ar
    20    31    32   ar
    21    32    33   ar
    22    24    25   ar
    23    25    26   ar
    24    26    27   ar
    25    27    28    1
    26    13    14   ar
    27    14    16    1
    28    16    17   ar
    29    17    18   ar
    30    18    19   ar
    31    19    20   ar
    32    14    15   ar
    33    15    10   ar
    34     8     3    1
    35    27    22   ar
    36    20    16   ar
    37    33    29   ar
@<TRIPOS>MOLECULE
*****
 33 37 0 0 0
SMALL
GASTEIGER

@<TRIPOS>ATOM
      1 C          65.0628   91.3429   12.7429 C.2     1  UNL1        0.2506
      2 O          65.8283   90.9181   13.9609 O.2     1  UNL1       -0.2699
      3 N          63.9549   90.4806   12.2148 N.am    1  UNL1       -0.2723
      4 C          63.1894   90.9054   10.9968 C.3     1  UNL1        0.1257
      5 C          62.0815   90.0431   10.4687 C.3     1  UNL1        0.1637
      6 O          61.7391   88.7559   11.1585 O.3     1  UNL1       -0.3502
      7 C          62.5046   88.3311   12.3765 C.3     1  UNL1        0.1622
      8 C          63.6125   89.1934   12.9047 C.3     1  UNL1        0.1097
      9 C          66.4325   96.4916    9.9834 C.3     1  UNL1        0.0311
     10 C          66.0901   95.2044   10.6733 C.ar    1  UNL1       -0.0203
     11 C          65.1636   94.2247   10.0162 C.ar    1  UNL1       -0.0040
     12 C          64.8212   92.9375   10.7061 C.ar    1  UNL1        0.0058
     13 C          65.4052   92.6301   12.0530 C.ar    1  UNL1        0.0729
     14 C          66.3317   93.6098   12.7101 C.ar    1  UNL1        0.1069
     15 C          66.6741   94.8970   12.0202 C.ar    1  UNL1        0.0168
     16 N          66.9158   93.3024   14.0571 N.ar    1  UNL1       -0.1477
     17 N          68.3468   92.9517   14.3384 N.ar    1  UNL1       -0.1447
     18 C          68.4869   92.7242   15.8144 C.ar    1  UNL1        0.1446
     19 C          67.1423   92.9344   16.4454 C.ar    1  UNL1        0.1446
     20 N          66.1714   93.2917   15.3593 N.ar    1  UNL1       -0.1447
     21 C          64.3780   88.7686   14.1227 C.3     1  UNL1        0.0510
     22 C          63.9526   87.5514   14.8891 C.ar    1  UNL1        0.0071
     23 C          64.0588   86.1938   14.2601 C.ar    1  UNL1        0.0012
     24 C          63.6334   84.9767   15.0266 C.ar    1  UNL1        0.0389
     25 C          63.1017   85.1170   16.4221 C.ar    1  UNL1        0.0054
     26 C          62.9954   86.4746   17.0511 C.ar    1  UNL1        0.0294
     27 C          63.4209   87.6917   16.2847 C.ar    1  UNL1        0.1362
     28 F          63.3146   89.0493   16.9138 F       1  UNL1       -0.2045
     29 C          63.7396   83.6191   14.3974 C.ar    1  UNL1        0.2037
     30 N          64.2515   83.3239   13.0187 N.ar    1  UNL1       -0.1829
     31 C          64.1810   81.8408   12.8057 C.ar    1  UNL1        0.3164
     32 O          63.6255   81.2193   14.0529 O.2     1  UNL1       -0.3274
     33 N          63.3527   82.3184   15.0366 N.ar    1  UNL1       -0.0554
@<TRIPOS>BOND
     1     9    10    1
     2    10    11   ar
     3    11    12   ar
     4    12    13   ar
     5    13     1    1
     6     1     2    2
     7     1     3   am
     8     3     4    1
     9     4     5    1
    10     5     6    1
    11     6     7    1
    12     7     8    1
    13     8    21    1
    14    21    22    1
    15    22    23   ar
    16    23    24   ar
    17    24    29    1
    18    29    30   ar
    19    30    31   ar
    20    31    32   ar
    21    32    33   ar
    22    24    25   ar
    23    25    26   ar
    24    26    27   ar
    25    27    28    1
    26    13    14   ar
    27    14    16    1
    28    16    17   ar
    29    17    18   ar
    30    18    19   ar
    31    19    20   ar
    32    14    15   ar
    33    15    10   ar
    34     8     3    1
    35    27    22   ar
    36    20    16   ar
    37    33    29   ar
@<TRIPOS>MOLECULE
*****
 33 37 0 0 0
SMALL
GASTEIGER

@<TRIPOS>ATOM
      1 C          63.4884   87.5270   13.3937 C.2     1  UNL1        0.2506
      2 O          63.5769   88.6566   12.4109 O.2     1  UNL1       -0.2699
      3 N          63.3813   87.8166   14.8616 N.am    1  UNL1       -0.2723
      4 C          63.2927   86.6869   15.8445 C.3     1  UNL1        0.1257
      5 C          63.1856   86.9765   17.3123 C.3     1  UNL1        0.1637
      6 O          63.1670   88.3958   17.7973 O.3     1  UNL1       -0.3502
      7 C          63.2556   89.5255   16.8145 C.3     1  UNL1        0.1622
      8 C          63.3627   89.2359   15.3466 C.3     1  UNL1        0.1097
      9 C          63.5626   81.8498   11.4536 C.3     1  UNL1        0.0311
     10 C          63.5441   83.2691   11.9386 C.ar    1  UNL1       -0.0203
     11 C          64.3703   83.6669   13.1257 C.ar    1  UNL1       -0.0040
     12 C          64.3517   85.0862   13.6107 C.ar    1  UNL1        0.0058
     13 C          63.5070   86.1077   12.9087 C.ar    1  UNL1        0.0729
     14 C          62.6808   85.7099   11.7217 C.ar    1  UNL1        0.1069
     15 C          62.6993   84.2906   11.2366 C.ar    1  UNL1        0.0168
     16 N          61.8359   86.7314   11.0196 N.ar    1  UNL1       -0.1477
     17 N          62.0989   87.3096    9.6607 N.ar    1  UNL1       -0.1447
     18 C          61.0054   88.2896    9.3543 C.ar    1  UNL1        0.1446
     19 C          60.0666   88.3171   10.5240 C.ar    1  UNL1        0.1446
     20 N          60.5799   87.3541   11.5531 N.ar    1  UNL1       -0.1447
     21 C          63.4513   90.3656   14.3638 C.3     1  UNL1        0.0510
     22 C          64.6668   91.2440   14.3384 C.ar    1  UNL1        0.0071
     23 C          65.3831   91.4962   13.0448 C.ar    1  UNL1        0.0012
     24 C          66.5987   92.3747   13.0194 C.ar    1  UNL1        0.0389
     25 C          67.0980   93.0010   14.2876 C.ar    1  UNL1        0.0054
     26 C          66.3817   92.7489   15.5812 C.ar    1  UNL1        0.0294
     27 C          65.1662   91.8704   15.6066 C.ar    1  UNL1        0.1362
     28 F          64.4499   91.6183   16.9002 F       1  UNL1       -0.2045
     29 C          67.3149   92.6268   11.7257 C.ar    1  UNL1        0.2037
     30 N          66.8978   93.5985   10.6619 N.ar    1  UNL1       -0.1829
     31 C          67.8991   93.5238    9.5475 C.ar    1  UNL1        0.3164
     32 O          68.9350   92.5058    9.9226 O.2     1  UNL1       -0.3274
     33 N          68.5739   91.9515   11.2689 N.ar    1  UNL1       -0.0554
@<TRIPOS>BOND
     1     9    10    1
     2    10    11   ar
     3    11    12   ar
     4    12    13   ar
     5    13     1    1
     6     1     2    2
     7     1     3   am
     8     3     4    1
     9     4     5    1
    10     5     6    1
    11     6     7    1
    12     7     8    1
    13     8    21    1
    14    21    22    1
    15    22    23   ar
    16    23    24   ar
    17    24    29    1
    18    29    30   ar
    19    30    31   ar
    20    31    32   ar
    21    32    33   ar
    22    24    25   ar
    23    25    26   ar
    24    26    27   ar
    25    27    28    1
    26    13    14   ar
    27    14    16    1
    28    16    17   ar
    29    17    18   ar
    30    18    19   ar
    31    19    20   ar
    32    14    15   ar
    33    15    10   ar
    34     8     3    1
    35    27    22   ar
    36    20    16   ar
    37    33    29   ar
@<TRIPOS>MOLECULE
*****
 33 37 0 0 0
SMALL
GASTEIGER

@<TRIPOS>ATOM
      1 C          64.0045   85.1651   14.2139 C.2     1  UNL1        0.2506
      2 O          65.0324   85.8638   13.3741 O.2     1  UNL1       -0.2699
      3 N          63.3845   85.8720   15.3825 N.am    1  UNL1       -0.2723
      4 C          62.3565   85.1734   16.2224 C.3     1  UNL1        0.1257
      5 C          61.7365   85.8803   17.3910 C.3     1  UNL1        0.1637
      6 O          62.1444   87.2858   17.7200 O.3     1  UNL1       -0.3502
      7 C          63.1723   87.9844   16.8802 C.3     1  UNL1        0.1622
      8 C          63.7924   87.2775   15.7114 C.3     1  UNL1        0.1097
      9 C          62.3729   79.5431   12.8982 C.3     1  UNL1        0.0311
     10 C          62.7808   80.9486   13.2271 C.ar    1  UNL1       -0.0203
     11 C          63.5543   81.2312   14.4809 C.ar    1  UNL1       -0.0040
     12 C          63.9622   82.6367   14.8098 C.ar    1  UNL1        0.0058
     13 C          63.5966   83.7596   13.8850 C.ar    1  UNL1        0.0729
     14 C          62.8232   83.4771   12.6312 C.ar    1  UNL1        0.1069
     15 C          62.4153   82.0716   12.3023 C.ar    1  UNL1        0.0168
     16 N          62.4576   84.6000   11.7063 N.ar    1  UNL1       -0.1477
     17 N          61.5806   85.7695   12.0429 N.ar    1  UNL1       -0.1447
     18 C          61.4858   86.6429   10.8271 C.ar    1  UNL1        0.1446
     19 C          62.3043   86.0132    9.7391 C.ar    1  UNL1        0.1446
     20 N          62.9048   84.7507   10.2825 N.ar    1  UNL1       -0.1447
     21 C          64.8203   87.9762   14.8717 C.3     1  UNL1        0.0510
     22 C          64.4245   89.1469   14.0215 C.ar    1  UNL1        0.0071
     23 C          63.2960   89.0152   13.0423 C.ar    1  UNL1        0.0012
     24 C          62.9002   90.1859   12.1921 C.ar    1  UNL1        0.0389
     25 C          63.6330   91.4883   12.3212 C.ar    1  UNL1        0.0054
     26 C          64.7616   91.6200   13.3004 C.ar    1  UNL1        0.0294
     27 C          65.1573   90.4493   14.1506 C.ar    1  UNL1        0.1362
     28 F          66.2860   90.5810   15.1299 F       1  UNL1       -0.2045
     29 C          61.7716   90.0542   11.2129 C.ar    1  UNL1        0.2037
     30 N          61.9076   89.8440    9.7339 N.ar    1  UNL1       -0.1829
     31 C          60.5289   89.7694    9.1476 C.ar    1  UNL1        0.3164
     32 O          59.5409   89.9335   10.2642 O.2     1  UNL1       -0.3274
     33 N          60.3089   90.1095   11.5406 N.ar    1  UNL1       -0.0554
@<TRIPOS>BOND
     1     9    10    1
     2    10    11   ar
     3    11    12   ar
     4    12    13   ar
     5    13     1    1
     6     1     2    2
     7     1     3   am
     8     3     4    1
     9     4     5    1
    10     5     6    1
    11     6     7    1
    12     7     8    1
    13     8    21    1
    14    21    22    1
    15    22    23   ar
    16    23    24   ar
    17    24    29    1
    18    29    30   ar
    19    30    31   ar
    20    31    32   ar
    21    32    33   ar
    22    24    25   ar
    23    25    26   ar
    24    26    27   ar
    25    27    28    1
    26    13    14   ar
    27    14    16    1
    28    16    17   ar
    29    17    18   ar
    30    18    19   ar
    31    19    20   ar
    32    14    15   ar
    33    15    10   ar
    34     8     3    1
    35    27    22   ar
    36    20    16   ar
    37    33    29   ar
@<TRIPOS>MOLECULE
*****
 33 37 0 0 0
SMALL
GASTEIGER

@<TRIPOS>ATOM
      1 C          64.8685   91.1722   13.0086 C.2     1  UNL1        0.2506
      2 O          64.3277   91.8575   11.7888 O.2     1  UNL1       -0.2699
      3 N          64.4439   89.7703   13.3314 N.am    1  UNL1       -0.2723
      4 C          64.9846   89.0849   14.5513 C.3     1  UNL1        0.1257
      5 C          64.5600   87.6830   14.8741 C.3     1  UNL1        0.1637
      6 O          63.5947   86.9664   13.9771 O.3     1  UNL1       -0.3502
      7 C          63.0540   87.6517   12.7573 C.3     1  UNL1        0.1622
      8 C          63.4785   89.0537   12.4345 C.3     1  UNL1        0.1097
      9 C          68.7298   94.0388   16.5965 C.3     1  UNL1        0.0311
     10 C          67.7645   93.3221   15.6995 C.ar    1  UNL1       -0.0203
     11 C          66.6057   92.5746   16.2897 C.ar    1  UNL1       -0.0040
     12 C          65.6404   91.8580   15.3927 C.ar    1  UNL1        0.0058
     13 C          65.8338   91.8889   13.9056 C.ar    1  UNL1        0.0729
     14 C          66.9926   92.6364   13.3154 C.ar    1  UNL1        0.1069
     15 C          67.9579   93.3531   14.2124 C.ar    1  UNL1        0.0168
     16 N          67.1861   92.6674   11.8282 N.ar    1  UNL1       -0.1477
     17 N          67.9871   91.6877   11.0228 N.ar    1  UNL1       -0.1447
     18 C          67.9086   92.0982    9.5822 C.ar    1  UNL1        0.1446
     19 C          67.0591   93.3316    9.4973 C.ar    1  UNL1        0.1446
     20 N          66.6126   93.6833   10.8854 N.ar    1  UNL1       -0.1447
     21 C          62.9378   89.7390   11.2147 C.3     1  UNL1        0.0510
     22 C          61.8356   89.1007   10.4224 C.ar    1  UNL1        0.0071
     23 C          62.1292   87.9199    9.5452 C.ar    1  UNL1        0.0012
     24 C          61.0270   87.2816    8.7529 C.ar    1  UNL1        0.0389
     25 C          59.6311   87.8241    8.8379 C.ar    1  UNL1        0.0054
     26 C          59.3375   89.0048    9.7151 C.ar    1  UNL1        0.0294
     27 C          60.4397   89.6431   10.5074 C.ar    1  UNL1        0.1362
     28 F          60.1460   90.8239   11.3846 F       1  UNL1       -0.2045
     29 C          61.3207   86.1008    7.8756 C.ar    1  UNL1        0.2037
     30 N          62.6427   85.4032    7.7497 N.ar    1  UNL1       -0.1829
     31 C          62.4831   84.2816    6.7666 C.ar    1  UNL1        0.3164
     32 O          61.0625   84.2861    6.2849 O.2     1  UNL1       -0.3274
     33 N          60.3441   85.4104    6.9704 N.ar    1  UNL1       -0.0554
@<TRIPOS>BOND
     1     9    10    1
     2    10    11   ar
     3    11    12   ar
     4    12    13   ar
     5    13     1    1
     6     1     2    2
     7     1     3   am
     8     3     4    1
     9     4     5    1
    10     5     6    1
    11     6     7    1
    12     7     8    1
    13     8    21    1
    14    21    22    1
    15    22    23   ar
    16    23    24   ar
    17    24    29    1
    18    29    30   ar
    19    30    31   ar
    20    31    32   ar
    21    32    33   ar
    22    24    25   ar
    23    25    26   ar
    24    26    27   ar
    25    27    28    1
    26    13    14   ar
    27    14    16    1
    28    16    17   ar
    29    17    18   ar
    30    18    19   ar
    31    19    20   ar
    32    14    15   ar
    33    15    10   ar
    34     8     3    1
    35    27    22   ar
    36    20    16   ar
    37    33    29   ar
@<TRIPOS>MOLECULE
*****
 33 37 0 0 0
SMALL
GASTEIGER

@<TRIPOS>ATOM
      1 C          62.3685   87.9376   11.1134 C.2     1  UNL1        0.2506
      2 O          63.4945   88.6037   10.3796 O.2     1  UNL1       -0.2699
      3 N          61.1192   88.7061   11.4271 N.am    1  UNL1       -0.2723
      4 C          59.9932   88.0400   12.1609 C.3     1  UNL1        0.1257
      5 C          58.7439   88.8086   12.4746 C.3     1  UNL1        0.1637
      6 O          58.6205   90.2433   12.0545 O.3     1  UNL1       -0.3502
      7 C          59.7465   90.9094   11.3208 C.3     1  UNL1        0.1622
      8 C          60.9959   90.1408   11.0070 C.3     1  UNL1        0.1097
      9 C          62.8619   82.1988   12.7935 C.3     1  UNL1        0.0311
     10 C          62.7386   83.6335   12.3735 C.ar    1  UNL1       -0.0203
     11 C          63.2795   84.7216   13.2529 C.ar    1  UNL1       -0.0040
     12 C          63.1561   86.1563   12.8328 C.ar    1  UNL1        0.0058
     13 C          62.4919   86.5029   11.5334 C.ar    1  UNL1        0.0729
     14 C          61.9509   85.4148   10.6540 C.ar    1  UNL1        0.1069
     15 C          62.0743   83.9801   11.0741 C.ar    1  UNL1        0.0168
     16 N          61.2866   85.7613    9.3545 N.ar    1  UNL1       -0.1477
     17 N          59.9840   86.4881    9.1965 N.ar    1  UNL1       -0.1447
     18 C          59.7006   86.6179    7.7293 C.ar    1  UNL1        0.1446
     19 C          60.8281   85.9714    6.9804 C.ar    1  UNL1        0.1446
     20 N          61.8083   85.4420    7.9849 N.ar    1  UNL1       -0.1447
     21 C          62.1218   90.8070   10.2733 C.3     1  UNL1        0.0510
     22 C          63.3063   91.3288   11.0314 C.ar    1  UNL1        0.0071
     23 C          64.3770   92.0962   10.3141 C.ar    1  UNL1        0.0012
     24 C          65.5615   92.6181   11.0722 C.ar    1  UNL1        0.0389
     25 C          65.6752   92.3726   12.5476 C.ar    1  UNL1        0.0054
     26 C          64.6044   91.6052   13.2649 C.ar    1  UNL1        0.0294
     27 C          63.4199   91.0833   12.5067 C.ar    1  UNL1        0.1362
     28 F          62.3491   90.3159   13.2241 F       1  UNL1       -0.2045
     29 C          66.6323   93.3856   10.3549 C.ar    1  UNL1        0.2037
     30 N          66.4609   94.7104    9.6727 N.ar    1  UNL1       -0.1829
     31 C          67.7851   95.1066    9.0900 C.ar    1  UNL1        0.3164
     32 O          68.7749   94.0265    9.4121 O.2     1  UNL1       -0.3274
     33 N          68.0625   92.9629   10.1938 N.ar    1  UNL1       -0.0554
@<TRIPOS>BOND
     1     9    10    1
     2    10    11   ar
     3    11    12   ar
     4    12    13   ar
     5    13     1    1
     6     1     2    2
     7     1     3   am
     8     3     4    1
     9     4     5    1
    10     5     6    1
    11     6     7    1
    12     7     8    1
    13     8    21    1
    14    21    22    1
    15    22    23   ar
    16    23    24   ar
    17    24    29    1
    18    29    30   ar
    19    30    31   ar
    20    31    32   ar
    21    32    33   ar
    22    24    25   ar
    23    25    26   ar
    24    26    27   ar
    25    27    28    1
    26    13    14   ar
    27    14    16    1
    28    16    17   ar
    29    17    18   ar
    30    18    19   ar
    31    19    20   ar
    32    14    15   ar
    33    15    10   ar
    34     8     3    1
    35    27    22   ar
    36    20    16   ar
    37    33    29   ar
