@<TRIPOS>MOLECULE
*****
 25 27 0 0 0
SMALL
GASTEIGER

@<TRIPOS>ATOM
      1 C          63.9365   88.0905   13.7192 C.2     1  UNL1        0.3580
      2 N          63.0879   87.7197   12.5392 N.2     1  UNL1       -0.0039
      3 C          62.6374   88.7787   11.5771 C.2     1  UNL1        0.3159
      4 C          63.0355   90.2084   11.7951 C.3     1  UNL1        0.2333
      5 C          63.8840   90.5791   12.9751 C.2     1  UNL1        0.3644
      6 O          64.2821   92.0088   13.1930 O.2     1  UNL1       -0.2422
      7 N          64.3345   89.5202   13.9371 N.am    1  UNL1        0.0289
      8 N          61.7888   88.4080   10.3971 N.pl3   1  UNL1       -0.1888
      9 C          60.9211   89.4420    9.7429 C.3     1  UNL1        0.2343
     10 C          60.0726   89.0713    8.5628 C.3     1  UNL1        0.1929
     11 O          60.0916   87.6666    8.0370 O.3     1  UNL1       -0.3449
     12 C          60.9593   86.6326    8.6912 C.3     1  UNL1        0.1929
     13 C          61.8079   87.0033    9.8713 C.3     1  UNL1        0.2343
     14 C          64.3870   87.0315   14.6814 C.3     1  UNL1        0.2066
     15 O          65.4208   84.6577   14.4664 O.2     1  UNL1       -0.2741
     16 C          64.2487   85.5822   14.3203 C.2     1  UNL1        0.2387
     17 N          62.9382   85.0574   13.8130 N.am    1  UNL1       -0.2834
     18 H          62.1689   85.6642   13.7171 H       1  UNL1        0.1549
     19 C          62.7998   83.6081   13.4520 C.ar    1  UNL1        0.0505
     20 C          62.3352   82.6200   14.4804 C.ar    1  UNL1        0.0170
     21 C          62.1969   81.1707   14.1193 C.ar    1  UNL1        0.0309
     22 C          62.5232   80.7095   12.7298 C.ar    1  UNL1        0.1402
     23 F          62.3849   79.2602   12.3687 F       1  UNL1       -0.2042
     24 C          62.9879   81.6976   11.7013 C.ar    1  UNL1        0.0309
     25 C          63.1262   83.1470   12.0625 C.ar    1  UNL1        0.0170
@<TRIPOS>BOND
     1    15    16    2
     2    16    14    1
     3    14     1    1
     4     1     2    1
     5     2     3    2
     6     3     8    1
     7     8     9    1
     8     9    10    1
     9    10    11    1
    10    11    12    1
    11    12    13    1
    12     3     4    1
    13     4     5    1
    14     5     6    2
    15     5     7    1
    16    16    17   am
    17    17    19    1
    18    19    20   ar
    19    20    21   ar
    20    21    22   ar
    21    22    23    1
    22    22    24   ar
    23    24    25   ar
    24     7     1    2
    25    25    19   ar
    26    13     8    1
    27    17    18    1
@<TRIPOS>MOLECULE
*****
 25 27 0 0 0
SMALL
GASTEIGER

@<TRIPOS>ATOM
      1 C          64.0626   88.1373   13.9768 C.2     1  UNL1        0.3580
      2 N          64.8067   89.4279   14.1513 N.2     1  UNL1       -0.0039
      3 C          64.5877   90.5561   13.1874 C.2     1  UNL1        0.3159
      4 C          63.6246   90.3937   12.0489 C.3     1  UNL1        0.2333
      5 C          62.8805   89.1030   11.8744 C.2     1  UNL1        0.3644
      6 O          61.9174   88.9406   10.7360 O.2     1  UNL1       -0.2422
      7 N          63.0995   87.9749   12.8383 N.am    1  UNL1        0.0289
      8 N          65.3318   91.8469   13.3619 N.pl3   1  UNL1       -0.1888
      9 C          65.4654   92.7973   12.2091 C.3     1  UNL1        0.2343
     10 C          66.2095   94.0880   12.3835 C.3     1  UNL1        0.1929
     11 O          66.8200   94.4283   13.7108 O.3     1  UNL1       -0.3449
     12 C          66.6864   93.4779   14.8636 C.3     1  UNL1        0.1929
     13 C          65.9422   92.1871   14.6891 C.3     1  UNL1        0.2343
     14 C          64.2816   87.0090   14.9407 C.3     1  UNL1        0.2066
     15 O          65.3960   84.7048   14.4951 O.2     1  UNL1       -0.2741
     16 C          64.1846   85.5889   14.4676 C.2     1  UNL1        0.2387
     17 N          62.8761   85.0528   13.9671 N.am    1  UNL1       -0.2834
     18 H          62.0809   85.6331   13.9490 H       1  UNL1        0.1549
     19 C          62.7791   83.6327   13.4940 C.ar    1  UNL1        0.0505
     20 C          62.3954   82.5467   14.4549 C.ar    1  UNL1        0.0170
     21 C          62.2984   81.1265   13.9818 C.ar    1  UNL1        0.0309
     22 C          62.5850   80.7925   12.5478 C.ar    1  UNL1        0.1402
     23 F          62.4880   79.3723   12.0747 F       1  UNL1       -0.2042
     24 C          62.9687   81.8785   11.5869 C.ar    1  UNL1        0.0309
     25 C          63.0657   83.2987   12.0601 C.ar    1  UNL1        0.0170
@<TRIPOS>BOND
     1    15    16    2
     2    16    14    1
     3    14     1    1
     4     1     2    1
     5     2     3    2
     6     3     8    1
     7     8     9    1
     8     9    10    1
     9    10    11    1
    10    11    12    1
    11    12    13    1
    12     3     4    1
    13     4     5    1
    14     5     6    2
    15     5     7    1
    16    16    17   am
    17    17    19    1
    18    19    20   ar
    19    20    21   ar
    20    21    22   ar
    21    22    23    1
    22    22    24   ar
    23    24    25   ar
    24     7     1    2
    25    25    19   ar
    26    13     8    1
    27    17    18    1
@<TRIPOS>MOLECULE
*****
 25 27 0 0 0
SMALL
GASTEIGER

@<TRIPOS>ATOM
      1 C          64.4003   91.2479   13.0238 C.2     1  UNL1        0.3580
      2 N          64.8087   92.2311   11.9672 N.2     1  UNL1       -0.0039
      3 C          66.1569   92.8853   12.0324 C.2     1  UNL1        0.3159
      4 C          67.0967   92.5564   13.1542 C.3     1  UNL1        0.2333
      5 C          66.6883   91.5732   14.2109 C.2     1  UNL1        0.3644
      6 O          67.6281   91.2443   15.3327 O.2     1  UNL1       -0.2422
      7 N          65.3401   90.9189   14.1457 N.am    1  UNL1        0.0289
      8 N          66.5653   93.8686   10.9757 N.pl3   1  UNL1       -0.1888
      9 C          67.2536   93.3901    9.7318 C.3     1  UNL1        0.2343
     10 C          67.6621   94.3732    8.6752 C.3     1  UNL1        0.1929
     11 O          67.3821   95.8350    8.8624 O.3     1  UNL1       -0.3449
     12 C          66.6938   96.3135   10.1063 C.3     1  UNL1        0.1929
     13 C          66.2854   95.3303   11.1629 C.3     1  UNL1        0.2343
     14 C          63.0521   90.5936   12.9586 C.3     1  UNL1        0.2066
     15 O          63.0983   90.2519   10.3836 O.2     1  UNL1       -0.2741
     16 C          62.6601   89.8026   11.7459 C.2     1  UNL1        0.2387
     17 N          61.8299   88.5622   11.8956 N.am    1  UNL1       -0.2834
     18 H          61.5423   88.2673   12.7897 H       1  UNL1        0.1549
     19 C          61.4380   87.7712   10.6829 C.ar    1  UNL1        0.0505
     20 C          60.1181   88.0245   10.0166 C.ar    1  UNL1        0.0170
     21 C          59.7262   87.2335    8.8039 C.ar    1  UNL1        0.0309
     22 C          60.6541   86.1892    8.2574 C.ar    1  UNL1        0.1402
     23 F          60.2621   85.3983    7.0447 F       1  UNL1       -0.2042
     24 C          61.9739   85.9360    8.9237 C.ar    1  UNL1        0.0309
     25 C          62.3658   86.7270   10.1365 C.ar    1  UNL1        0.0170
@<TRIPOS>BOND
     1    15    16    2
     2    16    14    1
     3    14     1    1
     4     1     2    1
     5     2     3    2
     6     3     8    1
     7     8     9    1
     8     9    10    1
     9    10    11    1
    10    11    12    1
    11    12    13    1
    12     3     4    1
    13     4     5    1
    14     5     6    2
    15     5     7    1
    16    16    17   am
    17    17    19    1
    18    19    20   ar
    19    20    21   ar
    20    21    22   ar
    21    22    23    1
    22    22    24   ar
    23    24    25   ar
    24     7     1    2
    25    25    19   ar
    26    13     8    1
    27    17    18    1
@<TRIPOS>MOLECULE
*****
 25 27 0 0 0
SMALL
GASTEIGER

@<TRIPOS>ATOM
      1 C          62.1728   87.9531   10.9872 C.2     1  UNL1        0.3580
      2 N          62.5179   86.9870   12.0815 N.2     1  UNL1       -0.0039
      3 C          62.7243   85.5358   11.7632 C.2     1  UNL1        0.3159
      4 C          62.5855   85.0507   10.3506 C.3     1  UNL1        0.2333
      5 C          62.2405   86.0167    9.2563 C.2     1  UNL1        0.3644
      6 O          62.1017   85.5316    7.8437 O.2     1  UNL1       -0.2422
      7 N          62.0341   87.4679    9.5746 N.am    1  UNL1        0.0289
      8 N          63.0694   84.5696   12.8576 N.pl3   1  UNL1       -0.1888
      9 C          63.6494   85.0722   14.1464 C.3     1  UNL1        0.2343
     10 C          63.9945   84.1061   15.2407 C.3     1  UNL1        0.1929
     11 O          63.7595   82.6374   15.0462 O.3     1  UNL1       -0.3449
     12 C          63.1795   82.1348   13.7574 C.3     1  UNL1        0.1929
     13 C          62.8344   83.1010   12.6631 C.3     1  UNL1        0.2343
     14 C          61.9665   89.4044   11.3054 C.3     1  UNL1        0.2066
     15 O          62.6408   89.9326   13.7582 O.2     1  UNL1       -0.2741
     16 C          62.8701   90.0934   12.2846 C.2     1  UNL1        0.2387
     17 N          64.0030   90.9432   11.7901 N.am    1  UNL1       -0.2834
     18 H          64.1534   91.0487   10.8229 H       1  UNL1        0.1549
     19 C          64.9066   91.6321   12.7693 C.ar    1  UNL1        0.0505
     20 C          65.5386   92.9446   12.4115 C.ar    1  UNL1        0.0170
     21 C          66.4421   93.6336   13.3906 C.ar    1  UNL1        0.0309
     22 C          66.7138   93.0101   14.7277 C.ar    1  UNL1        0.1402
     23 F          67.6174   93.6990   15.7068 F       1  UNL1       -0.2042
     24 C          66.0818   91.6976   15.0854 C.ar    1  UNL1        0.0309
     25 C          65.1782   91.0086   14.1062 C.ar    1  UNL1        0.0170
@<TRIPOS>BOND
     1    15    16    2
     2    16    14    1
     3    14     1    1
     4     1     2    1
     5     2     3    2
     6     3     8    1
     7     8     9    1
     8     9    10    1
     9    10    11    1
    10    11    12    1
    11    12    13    1
    12     3     4    1
    13     4     5    1
    14     5     6    2
    15     5     7    1
    16    16    17   am
    17    17    19    1
    18    19    20   ar
    19    20    21   ar
    20    21    22   ar
    21    22    23    1
    22    22    24   ar
    23    24    25   ar
    24     7     1    2
    25    25    19   ar
    26    13     8    1
    27    17    18    1
@<TRIPOS>MOLECULE
*****
 25 27 0 0 0
SMALL
GASTEIGER

@<TRIPOS>ATOM
      1 C          63.7802   83.2149   11.7053 C.2     1  UNL1        0.3580
      2 N          63.6943   84.4017   12.6185 N.2     1  UNL1       -0.0039
      3 C          63.5416   84.2007   14.0971 C.2     1  UNL1        0.3159
      4 C          63.4747   82.8130   14.6624 C.3     1  UNL1        0.2333
      5 C          63.5606   81.6262   13.7492 C.2     1  UNL1        0.3644
      6 O          63.4938   80.2384   14.3145 O.2     1  UNL1       -0.2422
      7 N          63.7134   81.8271   12.2706 N.am    1  UNL1        0.0289
      8 N          63.4557   85.3876   15.0104 N.pl3   1  UNL1       -0.1888
      9 C          64.0505   86.6998   14.5929 C.3     1  UNL1        0.2343
     10 C          63.9646   87.8866   15.5062 C.3     1  UNL1        0.1929
     11 O          63.2839   87.7612   16.8370 O.3     1  UNL1       -0.3449
     12 C          62.6892   86.4490   17.2545 C.3     1  UNL1        0.1929
     13 C          62.7751   85.2622   16.3412 C.3     1  UNL1        0.2343
     14 C          63.9330   83.4159   10.2266 C.3     1  UNL1        0.2066
     15 O          63.2851   84.6756    8.0487 O.2     1  UNL1       -0.2741
     16 C          63.1593   84.4975    9.5328 C.2     1  UNL1        0.2387
     17 N          62.2599   85.4012   10.3231 N.am    1  UNL1       -0.2834
     18 H          62.1774   85.2843   11.2972 H       1  UNL1        0.1549
     19 C          61.4863   86.4829    9.6293 C.ar    1  UNL1        0.0505
     20 C          61.7621   87.9230    9.9455 C.ar    1  UNL1        0.0170
     21 C          60.9884   89.0047    9.2517 C.ar    1  UNL1        0.0309
     22 C          59.9389   88.6463    8.2417 C.ar    1  UNL1        0.1402
     23 F          59.1652   89.7280    7.5480 F       1  UNL1       -0.2042
     24 C          59.6630   87.2062    7.9256 C.ar    1  UNL1        0.0309
     25 C          60.4368   86.1244    8.6194 C.ar    1  UNL1        0.0170
@<TRIPOS>BOND
     1    15    16    2
     2    16    14    1
     3    14     1    1
     4     1     2    1
     5     2     3    2
     6     3     8    1
     7     8     9    1
     8     9    10    1
     9    10    11    1
    10    11    12    1
    11    12    13    1
    12     3     4    1
    13     4     5    1
    14     5     6    2
    15     5     7    1
    16    16    17   am
    17    17    19    1
    18    19    20   ar
    19    20    21   ar
    20    21    22   ar
    21    22    23    1
    22    22    24   ar
    23    24    25   ar
    24     7     1    2
    25    25    19   ar
    26    13     8    1
    27    17    18    1
@<TRIPOS>MOLECULE
*****
 25 27 0 0 0
SMALL
GASTEIGER

@<TRIPOS>ATOM
      1 C          61.9142   87.1793   10.4744 C.2     1  UNL1        0.3580
      2 N          62.1952   86.2856   11.6458 N.2     1  UNL1       -0.0039
      3 C          62.7569   84.9126   11.4238 C.2     1  UNL1        0.3159
      4 C          63.0377   84.4334   10.0304 C.3     1  UNL1        0.2333
      5 C          62.7567   85.3271    8.8590 C.2     1  UNL1        0.3644
      6 O          63.0375   84.8479    7.4656 O.2     1  UNL1       -0.2422
      7 N          62.1950   86.7001    9.0810 N.am    1  UNL1        0.0289
      8 N          63.0380   84.0187   12.5952 N.pl3   1  UNL1       -0.1888
      9 C          63.5996   84.5954   13.8609 C.3     1  UNL1        0.2343
     10 C          63.8807   83.7017   15.0323 C.3     1  UNL1        0.1929
     11 O          63.6000   82.2311   14.9380 O.3     1  UNL1       -0.3449
     12 C          63.0383   81.6544   13.6723 C.3     1  UNL1        0.1929
     13 C          62.7573   82.5483   12.5009 C.3     1  UNL1        0.2343
     14 C          61.3524   88.5524   10.6964 C.3     1  UNL1        0.2066
     15 O          61.7380   90.9622   11.5873 O.2     1  UNL1       -0.2741
     16 C          62.0229   89.4911   11.6551 C.2     1  UNL1        0.2387
     17 N          62.9784   88.9587   12.6816 N.am    1  UNL1       -0.2834
     18 H          63.1654   87.9932   12.7261 H       1  UNL1        0.1549
     19 C          63.6490   89.8974   13.6403 C.ar    1  UNL1        0.0505
     20 C          63.2132   89.9420   15.0749 C.ar    1  UNL1        0.0170
     21 C          63.8837   90.8807   16.0336 C.ar    1  UNL1        0.0309
     22 C          64.9901   91.7750   15.5577 C.ar    1  UNL1        0.1402
     23 F          65.6606   92.7137   16.5164 F       1  UNL1       -0.2042
     24 C          65.4258   91.7304   14.1231 C.ar    1  UNL1        0.0309
     25 C          64.7552   90.7916   13.1644 C.ar    1  UNL1        0.0170
@<TRIPOS>BOND
     1    15    16    2
     2    16    14    1
     3    14     1    1
     4     1     2    1
     5     2     3    2
     6     3     8    1
     7     8     9    1
     8     9    10    1
     9    10    11    1
    10    11    12    1
    11    12    13    1
    12     3     4    1
    13     4     5    1
    14     5     6    2
    15     5     7    1
    16    16    17   am
    17    17    19    1
    18    19    20   ar
    19    20    21   ar
    20    21    22   ar
    21    22    23    1
    22    22    24   ar
    23    24    25   ar
    24     7     1    2
    25    25    19   ar
    26    13     8    1
    27    17    18    1
@<TRIPOS>MOLECULE
*****
 25 27 0 0 0
SMALL
GASTEIGER

@<TRIPOS>ATOM
      1 C          63.7766   87.4598   14.6377 C.2     1  UNL1        0.3580
      2 N          63.7283   86.0981   14.0106 N.2     1  UNL1       -0.0039
      3 C          63.3745   84.9013   14.8428 C.2     1  UNL1        0.3159
      4 C          63.0691   85.0663   16.3020 C.3     1  UNL1        0.2333
      5 C          63.1174   86.4280   16.9291 C.2     1  UNL1        0.3644
      6 O          62.8119   86.5930   18.3884 O.2     1  UNL1       -0.2422
      7 N          63.4711   87.6248   16.0970 N.am    1  UNL1        0.0289
      8 N          63.3262   83.5395   14.2157 N.pl3   1  UNL1       -0.1888
      9 C          62.2572   82.5667   14.6167 C.3     1  UNL1        0.2343
     10 C          62.2088   81.2049   13.9896 C.3     1  UNL1        0.1929
     11 O          63.2295   80.8159   12.9615 O.3     1  UNL1       -0.3449
     12 C          64.2986   81.7887   12.5605 C.3     1  UNL1        0.1929
     13 C          64.3469   83.1505   13.1876 C.3     1  UNL1        0.2343
     14 C          64.1304   88.6566   13.8055 C.3     1  UNL1        0.2066
     15 O          63.5098   90.2984   11.8899 O.2     1  UNL1       -0.2741
     16 C          63.3369   88.9741   12.5728 C.2     1  UNL1        0.2387
     17 N          62.3703   87.9673   12.0230 N.am    1  UNL1       -0.2834
     18 H          62.2568   87.0981   12.4713 H       1  UNL1        0.1549
     19 C          61.5768   88.2848   10.7904 C.ar    1  UNL1        0.0505
     20 C          61.4882   87.2836    9.6769 C.ar    1  UNL1        0.0170
     21 C          60.6947   87.6011    8.4443 C.ar    1  UNL1        0.0309
     22 C          59.9897   88.9198    8.3250 C.ar    1  UNL1        0.1402
     23 F          59.1962   89.2373    7.0924 F       1  UNL1       -0.2042
     24 C          60.0784   89.9210    9.4385 C.ar    1  UNL1        0.0309
     25 C          60.8720   89.6034   10.6712 C.ar    1  UNL1        0.0170
@<TRIPOS>BOND
     1    15    16    2
     2    16    14    1
     3    14     1    1
     4     1     2    1
     5     2     3    2
     6     3     8    1
     7     8     9    1
     8     9    10    1
     9    10    11    1
    10    11    12    1
    11    12    13    1
    12     3     4    1
    13     4     5    1
    14     5     6    2
    15     5     7    1
    16    16    17   am
    17    17    19    1
    18    19    20   ar
    19    20    21   ar
    20    21    22   ar
    21    22    23    1
    22    22    24   ar
    23    24    25   ar
    24     7     1    2
    25    25    19   ar
    26    13     8    1
    27    17    18    1
@<TRIPOS>MOLECULE
*****
 25 27 0 0 0
SMALL
GASTEIGER

@<TRIPOS>ATOM
      1 C          62.7242   89.2991   11.8577 C.2     1  UNL1        0.3580
      2 N          63.6134   90.4235   11.4164 N.2     1  UNL1       -0.0039
      3 C          64.2496   91.3211   12.4360 C.2     1  UNL1        0.3159
      4 C          63.9964   91.0942   13.8970 C.3     1  UNL1        0.2333
      5 C          63.1072   89.9698   14.3383 C.2     1  UNL1        0.3644
      6 O          62.8540   89.7429   15.7993 O.2     1  UNL1       -0.2422
      7 N          62.4710   89.0722   13.3187 N.am    1  UNL1        0.0289
      8 N          65.1389   92.4456   11.9947 N.pl3   1  UNL1       -0.1888
      9 C          65.3803   92.6815   10.5332 C.3     1  UNL1        0.2343
     10 C          66.2696   93.8059   10.0918 C.3     1  UNL1        0.1929
     11 O          66.9175   94.6945   11.1121 O.3     1  UNL1       -0.3449
     12 C          66.6760   94.4586   12.5736 C.3     1  UNL1        0.1929
     13 C          65.7867   93.3341   13.0149 C.3     1  UNL1        0.2343
     14 C          62.0880   88.4015   10.8380 C.3     1  UNL1        0.2066
     15 O          61.0594   86.0786   10.2937 O.2     1  UNL1       -0.2741
     16 C          62.0181   86.9228   11.0800 C.2     1  UNL1        0.2387
     17 N          62.9070   86.2882   12.1082 N.am    1  UNL1       -0.2834
     18 H          63.5362   86.8423   12.6243 H       1  UNL1        0.1549
     19 C          62.8371   84.8096   12.3502 C.ar    1  UNL1        0.0505
     20 C          63.0795   83.8525   11.2209 C.ar    1  UNL1        0.0170
     21 C          63.0097   82.3738   11.4628 C.ar    1  UNL1        0.0309
     22 C          62.6974   81.8521   12.8341 C.ar    1  UNL1        0.1402
     23 F          62.6276   80.3734   13.0760 F       1  UNL1       -0.2042
     24 C          62.4550   82.8092   13.9634 C.ar    1  UNL1        0.0309
     25 C          62.5249   84.2879   13.7214 C.ar    1  UNL1        0.0170
@<TRIPOS>BOND
     1    15    16    2
     2    16    14    1
     3    14     1    1
     4     1     2    1
     5     2     3    2
     6     3     8    1
     7     8     9    1
     8     9    10    1
     9    10    11    1
    10    11    12    1
    11    12    13    1
    12     3     4    1
    13     4     5    1
    14     5     6    2
    15     5     7    1
    16    16    17   am
    17    17    19    1
    18    19    20   ar
    19    20    21   ar
    20    21    22   ar
    21    22    23    1
    22    22    24   ar
    23    24    25   ar
    24     7     1    2
    25    25    19   ar
    26    13     8    1
    27    17    18    1
@<TRIPOS>MOLECULE
*****
 25 27 0 0 0
SMALL
GASTEIGER

@<TRIPOS>ATOM
      1 C          62.7829   90.0535   12.1547 C.2     1  UNL1        0.3580
      2 N          62.8792   88.6460   12.6641 N.2     1  UNL1       -0.0039
      3 C          63.7828   88.3262   13.8178 C.2     1  UNL1        0.3159
      4 C          64.5902   89.4140   14.4621 C.3     1  UNL1        0.2333
      5 C          64.4939   90.8215   13.9526 C.2     1  UNL1        0.3644
      6 O          65.3013   91.9092   14.5969 O.2     1  UNL1       -0.2422
      7 N          63.5902   91.1413   12.7989 N.am    1  UNL1        0.0289
      8 N          63.8792   86.9187   14.3274 N.pl3   1  UNL1       -0.1888
      9 C          63.9882   86.6603   15.8009 C.3     1  UNL1        0.2343
     10 C          64.0845   85.2528   16.3104 C.3     1  UNL1        0.1929
     11 O          64.0719   84.1036   15.3464 O.3     1  UNL1       -0.3449
     12 C          63.9629   84.3620   13.8729 C.3     1  UNL1        0.1929
     13 C          63.8665   85.7696   13.3633 C.3     1  UNL1        0.2343
     14 C          61.8791   90.3734   11.0009 C.3     1  UNL1        0.2066
     15 O          60.6859   89.6495    8.8096 O.2     1  UNL1       -0.2741
     16 C          61.5869   89.3286    9.9651 C.2     1  UNL1        0.2387
     17 N          62.1956   87.9629   10.0848 N.am    1  UNL1       -0.2834
     18 H          62.7870   87.7523   10.8432 H       1  UNL1        0.1549
     19 C          61.9034   86.9181    9.0489 C.ar    1  UNL1        0.0505
     20 C          62.9948   86.0036    8.5774 C.ar    1  UNL1        0.0170
     21 C          62.7025   84.9588    7.5415 C.ar    1  UNL1        0.0309
     22 C          61.3188   84.8285    6.9772 C.ar    1  UNL1        0.1402
     23 F          61.0265   83.7838    5.9414 F       1  UNL1       -0.2042
     24 C          60.2274   85.7431    7.4488 C.ar    1  UNL1        0.0309
     25 C          60.5197   86.7879    8.4847 C.ar    1  UNL1        0.0170
@<TRIPOS>BOND
     1    15    16    2
     2    16    14    1
     3    14     1    1
     4     1     2    1
     5     2     3    2
     6     3     8    1
     7     8     9    1
     8     9    10    1
     9    10    11    1
    10    11    12    1
    11    12    13    1
    12     3     4    1
    13     4     5    1
    14     5     6    2
    15     5     7    1
    16    16    17   am
    17    17    19    1
    18    19    20   ar
    19    20    21   ar
    20    21    22   ar
    21    22    23    1
    22    22    24   ar
    23    24    25   ar
    24     7     1    2
    25    25    19   ar
    26    13     8    1
    27    17    18    1
