@<TRIPOS>MOLECULE
*****
 36 41 0 0 0
SMALL
GASTEIGER

@<TRIPOS>ATOM
      1 C          63.3720   89.0846   17.0828 C.3     1  UNL1        0.0770
      2 N          63.5168   85.4027   14.4996 N.pl3   1  UNL1       -0.3046
      3 C          64.1934   86.6629   14.0479 C.3     1  UNL1        0.1081
      4 C          64.1451   87.8902   14.9090 C.3     1  UNL1        0.0938
      5 N          63.4202   87.8573   16.2218 N.3     1  UNL1       -0.2695
      6 C          62.7437   86.5970   16.6735 C.3     1  UNL1        0.0938
      7 C          62.7920   85.3698   15.8125 C.3     1  UNL1        0.1081
      8 C          62.6905   84.6270    7.7199 C.3     1  UNL1        0.0521
      9 C          62.9092   84.5141    9.1996 C.ar    1  UNL1        0.0593
     10 C          62.8609   85.7413   10.0606 C.ar    1  UNL1        0.0148
     11 C          63.0795   85.6285   11.5403 C.ar    1  UNL1        0.0039
     12 C          63.3465   84.2883   12.1589 C.ar    1  UNL1        0.0310
     13 C          63.5651   84.1755   13.6386 C.ar    1  UNL1        0.0493
     14 C          63.8321   82.8352   14.2572 C.ar    1  UNL1        0.0146
     15 C          63.8804   81.6080   13.3961 C.ar    1  UNL1        0.0028
     16 C          63.6617   81.7208   11.9165 C.ar    1  UNL1        0.0192
     17 C          63.3948   83.0610   11.2978 C.ar    1  UNL1        0.0821
     18 N          63.1761   83.1739    9.8182 N.ar    1  UNL1       -0.2496
     19 C          63.0721   90.4200   16.4691 C.3     1  UNL1        0.0468
     20 C          64.1920   91.2856   15.9725 C.ar    1  UNL1        0.0146
     21 C          65.1228   91.9414   16.9490 C.ar    1  UNL1       -0.0011
     22 C          66.2427   92.8069   16.4523 C.ar    1  UNL1        0.0014
     23 C          66.4317   93.0168   14.9791 C.ar    1  UNL1        0.0206
     24 C          65.5009   92.3610   14.0026 C.ar    1  UNL1        0.0989
     25 C          64.3811   91.4955   14.4993 C.ar    1  UNL1        0.1512
     26 O          63.4502   90.8397   13.5228 O.3     1  UNL1       -0.4662
     27 C          63.6392   91.0496   12.0496 C.3     1  UNL1        0.2688
     28 C          64.7591   91.9152   11.5530 C.ar    1  UNL1        0.1689
     29 N          65.1901   92.3030   10.1696 N.ar    1  UNL1       -0.2228
     30 C          66.3874   93.1985   10.2911 C.ar    1  UNL1        0.1715
     31 C          66.6963   93.3640   11.7496 C.ar    1  UNL1        0.1045
     32 N          65.6899   92.5709   12.5295 N.ar    1  UNL1       -0.2866
     33 C          67.1431   93.8194    9.1538 C.3     1  UNL1        0.4363
     34 F          67.8988   94.4402    8.0165 F       1  UNL1       -0.1644
     35 F          67.9515   92.5645    9.0058 F       1  UNL1       -0.1644
     36 F          66.3348   95.0742    9.3017 F       1  UNL1       -0.1644
@<TRIPOS>BOND
     1     8     9    1
     2     9    10   ar
     3    10    11   ar
     4    11    12   ar
     5    12    13   ar
     6    13     2    1
     7     2     3    1
     8     3     4    1
     9     4     5    1
    10     5     1    1
    11     1    19    1
    12    19    20    1
    13    20    21   ar
    14    21    22   ar
    15    22    23   ar
    16    23    24   ar
    17    24    25   ar
    18    25    26    1
    19    26    27    1
    20    27    28    1
    21    28    29   ar
    22    29    30   ar
    23    30    33    1
    24    33    34    1
    25    33    35    1
    26    33    36    1
    27    30    31   ar
    28    31    32   ar
    29     5     6    1
    30     6     7    1
    31    13    14   ar
    32    14    15   ar
    33    15    16   ar
    34    16    17   ar
    35    17    18   ar
    36    18     9   ar
    37    17    12   ar
    38     7     2    1
    39    25    20   ar
    40    32    28   ar
    41    32    24    1
@<TRIPOS>MOLECULE
*****
 36 41 0 0 0
SMALL
GASTEIGER

@<TRIPOS>ATOM
      1 C          59.0499   90.2255    6.0528 C.3     1  UNL1        0.0770
      2 N          61.0607   92.6310    2.8248 N.pl3   1  UNL1       -0.3046
      3 C          61.8355   91.5902    3.5773 C.3     1  UNL1        0.1081
      4 C          61.1653   90.7883    4.6534 C.3     1  UNL1        0.0938
      5 N          59.7202   91.0273    4.9768 N.3     1  UNL1       -0.2695
      6 C          58.9454   92.0681    4.2242 C.3     1  UNL1        0.0938
      7 C          59.6156   92.8700    3.1482 C.3     1  UNL1        0.1081
      8 C          59.3574   93.6396   -3.7579 C.3     1  UNL1        0.0521
      9 C          59.9508   93.5879   -2.3812 C.ar    1  UNL1        0.0593
     10 C          59.2805   92.7861   -1.3052 C.ar    1  UNL1        0.0148
     11 C          59.8739   92.7344    0.0714 C.ar    1  UNL1        0.0039
     12 C          61.1376   93.4845    0.3721 C.ar    1  UNL1        0.0310
     13 C          61.7310   93.4328    1.7488 C.ar    1  UNL1        0.0493
     14 C          62.9947   94.1830    2.0494 C.ar    1  UNL1        0.0146
     15 C          63.6649   94.9848    0.9735 C.ar    1  UNL1        0.0028
     16 C          63.0716   95.0365   -0.4032 C.ar    1  UNL1        0.0192
     17 C          61.8079   94.2864   -0.7039 C.ar    1  UNL1        0.0821
     18 N          61.2145   94.3381   -2.0806 N.ar    1  UNL1       -0.2496
     19 C          59.6819   90.1135    7.4086 C.3     1  UNL1        0.0468
     20 C          60.0220   88.7640    7.9684 C.ar    1  UNL1        0.0146
     21 C          59.5060   87.5236    7.3013 C.ar    1  UNL1       -0.0011
     22 C          59.8461   86.1742    7.8611 C.ar    1  UNL1        0.0014
     23 C          60.7023   86.0653    9.0880 C.ar    1  UNL1        0.0206
     24 C          61.2183   87.3057    9.7550 C.ar    1  UNL1        0.0989
     25 C          60.8782   88.6551    9.1952 C.ar    1  UNL1        0.1512
     26 O          61.3942   89.8956    9.8622 O.3     1  UNL1       -0.4662
     27 C          62.2504   89.7867   11.0891 C.3     1  UNL1        0.2688
     28 C          62.5905   88.4372   11.6489 C.ar    1  UNL1        0.1689
     29 N          63.4068   88.0198   12.8360 N.ar    1  UNL1       -0.2228
     30 C          63.3953   86.5214   12.9027 C.ar    1  UNL1        0.1715
     31 C          62.5719   86.0127   11.7568 C.ar    1  UNL1        0.1045
     32 N          62.0745   87.1968   10.9818 N.ar    1  UNL1       -0.2866
     33 C          64.0860   85.6794   13.9343 C.3     1  UNL1        0.4363
     34 F          64.7767   84.8375   14.9658 F       1  UNL1       -0.1644
     35 F          64.5114   86.9201   14.6621 F       1  UNL1       -0.1644
     36 F          63.6607   84.4387   13.2065 F       1  UNL1       -0.1644
@<TRIPOS>BOND
     1     8     9    1
     2     9    10   ar
     3    10    11   ar
     4    11    12   ar
     5    12    13   ar
     6    13     2    1
     7     2     3    1
     8     3     4    1
     9     4     5    1
    10     5     1    1
    11     1    19    1
    12    19    20    1
    13    20    21   ar
    14    21    22   ar
    15    22    23   ar
    16    23    24   ar
    17    24    25   ar
    18    25    26    1
    19    26    27    1
    20    27    28    1
    21    28    29   ar
    22    29    30   ar
    23    30    33    1
    24    33    34    1
    25    33    35    1
    26    33    36    1
    27    30    31   ar
    28    31    32   ar
    29     5     6    1
    30     6     7    1
    31    13    14   ar
    32    14    15   ar
    33    15    16   ar
    34    16    17   ar
    35    17    18   ar
    36    18     9   ar
    37    17    12   ar
    38     7     2    1
    39    25    20   ar
    40    32    28   ar
    41    32    24    1
@<TRIPOS>MOLECULE
*****
 36 41 0 0 0
SMALL
GASTEIGER

@<TRIPOS>ATOM
      1 C          64.2013   88.8472   15.0247 C.3     1  UNL1        0.0770
      2 N          63.8219   84.9247   12.8522 N.pl3   1  UNL1       -0.3046
      3 C          64.5790   84.9957   14.1452 C.3     1  UNL1        0.1081
      4 C          64.7055   86.3033   14.8694 C.3     1  UNL1        0.0938
      5 N          64.0748   87.5397   14.3006 N.3     1  UNL1       -0.2695
      6 C          63.3177   87.4686   13.0076 C.3     1  UNL1        0.0938
      7 C          63.1913   86.1611   12.2834 C.3     1  UNL1        0.1081
      8 C          60.2231   79.2687   14.3716 C.3     1  UNL1        0.0521
      9 C          61.0912   80.3558   13.8107 C.ar    1  UNL1        0.0593
     10 C          61.2176   81.6633   14.5349 C.ar    1  UNL1        0.0148
     11 C          62.0857   82.7505   13.9740 C.ar    1  UNL1        0.0039
     12 C          62.8274   82.5301   12.6890 C.ar    1  UNL1        0.0310
     13 C          63.6955   83.6172   12.1281 C.ar    1  UNL1        0.0493
     14 C          64.4372   83.3968   10.8430 C.ar    1  UNL1        0.0146
     15 C          64.3107   82.0893   10.1189 C.ar    1  UNL1        0.0028
     16 C          63.4426   81.0021   10.6797 C.ar    1  UNL1        0.0192
     17 C          62.7010   81.2225   11.9648 C.ar    1  UNL1        0.0821
     18 N          61.8329   80.1354   12.5256 N.ar    1  UNL1       -0.2496
     19 C          63.3759   90.0244   14.5970 C.3     1  UNL1        0.0468
     20 C          63.4368   90.5072   13.1781 C.ar    1  UNL1        0.0146
     21 C          62.5478   89.8928   12.1379 C.ar    1  UNL1       -0.0011
     22 C          62.6089   90.3756   10.7190 C.ar    1  UNL1        0.0014
     23 C          63.5589   91.4729   10.3404 C.ar    1  UNL1        0.0206
     24 C          64.4479   92.0874   11.3806 C.ar    1  UNL1        0.0989
     25 C          64.3869   91.6045   12.7994 C.ar    1  UNL1        0.1512
     26 O          65.2759   92.2190   13.8397 O.3     1  UNL1       -0.4662
     27 C          66.2260   93.3163   13.4611 C.3     1  UNL1        0.2688
     28 C          66.2870   93.7991   12.0422 C.ar    1  UNL1        0.1689
     29 N          67.1169   94.8566   11.3768 N.ar    1  UNL1       -0.2228
     30 C          66.7408   94.8958    9.9252 C.ar    1  UNL1        0.1715
     31 C          65.6784   93.8625    9.6936 C.ar    1  UNL1        0.1045
     32 N          65.3980   93.1847   11.0020 N.ar    1  UNL1       -0.2866
     33 C          67.3245   95.8081    8.8874 C.3     1  UNL1        0.4363
     34 F          67.9083   96.7204    7.8497 F       1  UNL1       -0.1644
     35 F          67.0855   94.7652    7.8361 F       1  UNL1       -0.1644
     36 F          67.5636   96.8510    9.9387 F       1  UNL1       -0.1644
@<TRIPOS>BOND
     1     8     9    1
     2     9    10   ar
     3    10    11   ar
     4    11    12   ar
     5    12    13   ar
     6    13     2    1
     7     2     3    1
     8     3     4    1
     9     4     5    1
    10     5     1    1
    11     1    19    1
    12    19    20    1
    13    20    21   ar
    14    21    22   ar
    15    22    23   ar
    16    23    24   ar
    17    24    25   ar
    18    25    26    1
    19    26    27    1
    20    27    28    1
    21    28    29   ar
    22    29    30   ar
    23    30    33    1
    24    33    34    1
    25    33    35    1
    26    33    36    1
    27    30    31   ar
    28    31    32   ar
    29     5     6    1
    30     6     7    1
    31    13    14   ar
    32    14    15   ar
    33    15    16   ar
    34    16    17   ar
    35    17    18   ar
    36    18     9   ar
    37    17    12   ar
    38     7     2    1
    39    25    20   ar
    40    32    28   ar
    41    32    24    1
@<TRIPOS>MOLECULE
*****
 36 41 0 0 0
SMALL
GASTEIGER

@<TRIPOS>ATOM
      1 C          63.1990   88.4032   17.2831 C.3     1  UNL1        0.0770
      2 N          63.3857   84.9264   14.4323 N.pl3   1  UNL1       -0.3046
      3 C          64.3543   86.0632   14.2932 C.3     1  UNL1        0.1081
      4 C          64.2921   87.2222   15.2435 C.3     1  UNL1        0.0938
      5 N          63.2612   87.2443   16.3329 N.3     1  UNL1       -0.2695
      6 C          62.2925   86.1074   16.4719 C.3     1  UNL1        0.0938
      7 C          62.3548   84.9486   15.5217 C.3     1  UNL1        0.1081
      8 C          62.7490   84.6763    7.5925 C.3     1  UNL1        0.0521
      9 C          62.9237   84.4491    9.0649 C.ar    1  UNL1        0.0593
     10 C          62.8615   85.6080   10.0152 C.ar    1  UNL1        0.0148
     11 C          63.0362   85.3808   11.4875 C.ar    1  UNL1        0.0039
     12 C          63.2732   83.9947   12.0096 C.ar    1  UNL1        0.0310
     13 C          63.4479   83.7676   13.4820 C.ar    1  UNL1        0.0493
     14 C          63.6849   82.3814   14.0041 C.ar    1  UNL1        0.0146
     15 C          63.7472   81.2225   13.0538 C.ar    1  UNL1        0.0028
     16 C          63.5724   81.4497   11.5814 C.ar    1  UNL1        0.0192
     17 C          63.3354   82.8358   11.0593 C.ar    1  UNL1        0.0821
     18 N          63.1607   83.0630    9.5870 N.ar    1  UNL1       -0.2496
     19 C          63.2137   89.8073   16.7556 C.3     1  UNL1        0.0468
     20 C          63.1865   90.0529   15.2761 C.ar    1  UNL1        0.0146
     21 C          62.1275   89.4121   14.4288 C.ar    1  UNL1       -0.0011
     22 C          62.1004   89.6578   12.9493 C.ar    1  UNL1        0.0014
     23 C          63.1322   90.5443   12.3171 C.ar    1  UNL1        0.0206
     24 C          64.1911   91.1851   13.1645 C.ar    1  UNL1        0.0989
     25 C          64.2183   90.9394   14.6439 C.ar    1  UNL1        0.1512
     26 O          65.2772   91.5802   15.4913 O.3     1  UNL1       -0.4662
     27 C          66.3090   92.4667   14.8592 C.3     1  UNL1        0.2688
     28 C          66.2818   92.7123   13.3796 C.ar    1  UNL1        0.1689
     29 N          67.1607   93.5320   12.4820 N.ar    1  UNL1       -0.2228
     30 C          66.6449   93.3978   11.0799 C.ar    1  UNL1        0.1715
     31 C          65.4473   92.4952   11.1110 C.ar    1  UNL1        0.1045
     32 N          65.2229   92.0715   12.5323 N.ar    1  UNL1       -0.2866
     33 C          67.2250   94.0514    9.8607 C.3     1  UNL1        0.4363
     34 F          67.8050   94.7051    8.6416 F       1  UNL1       -0.1644
     35 F          66.9162   95.4013   10.4375 F       1  UNL1       -0.1644
     36 F          67.5337   92.7017    9.2839 F       1  UNL1       -0.1644
@<TRIPOS>BOND
     1     8     9    1
     2     9    10   ar
     3    10    11   ar
     4    11    12   ar
     5    12    13   ar
     6    13     2    1
     7     2     3    1
     8     3     4    1
     9     4     5    1
    10     5     1    1
    11     1    19    1
    12    19    20    1
    13    20    21   ar
    14    21    22   ar
    15    22    23   ar
    16    23    24   ar
    17    24    25   ar
    18    25    26    1
    19    26    27    1
    20    27    28    1
    21    28    29   ar
    22    29    30   ar
    23    30    33    1
    24    33    34    1
    25    33    35    1
    26    33    36    1
    27    30    31   ar
    28    31    32   ar
    29     5     6    1
    30     6     7    1
    31    13    14   ar
    32    14    15   ar
    33    15    16   ar
    34    16    17   ar
    35    17    18   ar
    36    18     9   ar
    37    17    12   ar
    38     7     2    1
    39    25    20   ar
    40    32    28   ar
    41    32    24    1
@<TRIPOS>MOLECULE
*****
 36 41 0 0 0
SMALL
GASTEIGER

@<TRIPOS>ATOM
      1 C          64.0629   88.9720   15.5287 C.3     1  UNL1        0.0770
      2 N          63.8255   85.2281   13.0434 N.pl3   1  UNL1       -0.3046
      3 C          64.3992   85.1738   14.4282 C.3     1  UNL1        0.1081
      4 C          64.4784   86.4218   15.2567 C.3     1  UNL1        0.0938
      5 N          63.9838   87.7240   14.7003 N.3     1  UNL1       -0.2695
      6 C          63.4100   87.7782   13.3153 C.3     1  UNL1        0.0938
      7 C          63.3309   86.5303   12.4869 C.3     1  UNL1        0.1081
      8 C          60.5935   79.2690   14.1811 C.3     1  UNL1        0.0521
      9 C          61.3817   80.4468   13.6895 C.ar    1  UNL1        0.0593
     10 C          61.4609   81.6948   14.5179 C.ar    1  UNL1        0.0148
     11 C          62.2491   82.8725   14.0264 C.ar    1  UNL1        0.0039
     12 C          62.9581   82.8024   12.7065 C.ar    1  UNL1        0.0310
     13 C          63.7463   83.9801   12.2149 C.ar    1  UNL1        0.0493
     14 C          64.4554   83.9099   10.8949 C.ar    1  UNL1        0.0146
     15 C          64.3762   82.6620   10.0665 C.ar    1  UNL1        0.0028
     16 C          63.5881   81.4842   10.5580 C.ar    1  UNL1        0.0192
     17 C          62.8790   81.5544   11.8780 C.ar    1  UNL1        0.0821
     18 N          62.0908   80.3766   12.3695 N.ar    1  UNL1       -0.2496
     19 C          63.6398   90.2875   14.9453 C.3     1  UNL1        0.0468
     20 C          64.6536   91.3709   14.7247 C.ar    1  UNL1        0.0146
     21 C          65.4606   91.8891   15.8780 C.ar    1  UNL1       -0.0011
     22 C          66.4743   92.9724   15.6574 C.ar    1  UNL1        0.0014
     23 C          66.6810   93.5376   14.2834 C.ar    1  UNL1        0.0206
     24 C          65.8740   93.0194   13.1301 C.ar    1  UNL1        0.0989
     25 C          64.8603   91.9361   13.3507 C.ar    1  UNL1        0.1512
     26 O          64.0533   91.4179   12.1974 O.3     1  UNL1       -0.4662
     27 C          64.2600   91.9831   10.8234 C.3     1  UNL1        0.2688
     28 C          65.2738   93.0665   10.6028 C.ar    1  UNL1        0.1689
     29 N          65.6945   93.8115    9.3708 N.ar    1  UNL1       -0.2228
     30 C          66.7616   94.7902    9.7627 C.ar    1  UNL1        0.1715
     31 C          67.0003   94.6499   11.2369 C.ar    1  UNL1        0.1045
     32 N          66.0808   93.5846   11.7561 N.ar    1  UNL1       -0.2866
     33 C          67.4662   95.7420    8.8420 C.3     1  UNL1        0.4363
     34 F          68.1708   96.6937    7.9213 F       1  UNL1       -0.1644
     35 F          67.5500   94.6691    7.7970 F       1  UNL1       -0.1644
     36 F          67.3824   96.8148    9.8869 F       1  UNL1       -0.1644
@<TRIPOS>BOND
     1     8     9    1
     2     9    10   ar
     3    10    11   ar
     4    11    12   ar
     5    12    13   ar
     6    13     2    1
     7     2     3    1
     8     3     4    1
     9     4     5    1
    10     5     1    1
    11     1    19    1
    12    19    20    1
    13    20    21   ar
    14    21    22   ar
    15    22    23   ar
    16    23    24   ar
    17    24    25   ar
    18    25    26    1
    19    26    27    1
    20    27    28    1
    21    28    29   ar
    22    29    30   ar
    23    30    33    1
    24    33    34    1
    25    33    35    1
    26    33    36    1
    27    30    31   ar
    28    31    32   ar
    29     5     6    1
    30     6     7    1
    31    13    14   ar
    32    14    15   ar
    33    15    16   ar
    34    16    17   ar
    35    17    18   ar
    36    18     9   ar
    37    17    12   ar
    38     7     2    1
    39    25    20   ar
    40    32    28   ar
    41    32    24    1
@<TRIPOS>MOLECULE
*****
 36 41 0 0 0
SMALL
GASTEIGER

@<TRIPOS>ATOM
      1 C          59.6043   88.9619    7.8379 C.3     1  UNL1        0.0770
      2 N          62.1257   87.5814   11.3001 N.pl3   1  UNL1       -0.3046
      3 C          61.0475   86.6919   10.7559 C.3     1  UNL1        0.1081
      4 C          60.2070   87.1521    9.6018 C.3     1  UNL1        0.0938
      5 N          60.4448   88.5017    8.9919 N.3     1  UNL1       -0.2695
      6 C          61.5231   89.3912    9.5362 C.3     1  UNL1        0.0938
      7 C          62.3635   88.9310   10.6902 C.3     1  UNL1        0.1081
      8 C          63.7795   81.2560   13.4224 C.3     1  UNL1        0.0521
      9 C          63.5762   82.7223   13.1804 C.ar    1  UNL1        0.0593
     10 C          62.7357   83.1825   12.0263 C.ar    1  UNL1        0.0148
     11 C          62.5324   84.6488   11.7842 C.ar    1  UNL1        0.0039
     12 C          63.1695   85.6549   12.6962 C.ar    1  UNL1        0.0310
     13 C          62.9662   87.1212   12.4541 C.ar    1  UNL1        0.0493
     14 C          63.6034   88.1274   13.3661 C.ar    1  UNL1        0.0146
     15 C          64.4438   87.6672   14.5202 C.ar    1  UNL1        0.0028
     16 C          64.6472   86.2009   14.7622 C.ar    1  UNL1        0.0192
     17 C          64.0100   85.1948   13.8503 C.ar    1  UNL1        0.0821
     18 N          64.2134   83.7285   14.0924 N.ar    1  UNL1       -0.2496
     19 C          60.2573   89.3746    6.5521 C.3     1  UNL1        0.0468
     20 C          59.5965   90.3900    5.6675 C.ar    1  UNL1        0.0146
     21 C          58.1260   90.6552    5.7987 C.ar    1  UNL1       -0.0011
     22 C          57.4652   91.6706    4.9141 C.ar    1  UNL1        0.0014
     23 C          58.2750   92.4207    3.8984 C.ar    1  UNL1        0.0206
     24 C          59.7455   92.1555    3.7673 C.ar    1  UNL1        0.0989
     25 C          60.4062   91.1401    4.6519 C.ar    1  UNL1        0.1512
     26 O          61.8768   90.8748    4.5208 O.3     1  UNL1       -0.4662
     27 C          62.6866   91.6249    3.5051 C.3     1  UNL1        0.2688
     28 C          62.0258   92.6403    2.6205 C.ar    1  UNL1        0.1689
     29 N          62.5621   93.5277    1.5366 N.ar    1  UNL1       -0.2228
     30 C          61.4229   94.3415    0.9978 C.ar    1  UNL1        0.1715
     31 C          60.1827   93.9569    1.7487 C.ar    1  UNL1        0.1045
     32 N          60.5553   92.9056    2.7516 N.ar    1  UNL1       -0.2866
     33 C          61.5090   95.3608   -0.0993 C.3     1  UNL1        0.4363
     34 F          61.5951   96.3800   -1.1964 F       1  UNL1       -0.1644
     35 F          62.8178   94.7755   -0.5404 F       1  UNL1       -0.1644
     36 F          60.2003   95.9461    0.3417 F       1  UNL1       -0.1644
@<TRIPOS>BOND
     1     8     9    1
     2     9    10   ar
     3    10    11   ar
     4    11    12   ar
     5    12    13   ar
     6    13     2    1
     7     2     3    1
     8     3     4    1
     9     4     5    1
    10     5     1    1
    11     1    19    1
    12    19    20    1
    13    20    21   ar
    14    21    22   ar
    15    22    23   ar
    16    23    24   ar
    17    24    25   ar
    18    25    26    1
    19    26    27    1
    20    27    28    1
    21    28    29   ar
    22    29    30   ar
    23    30    33    1
    24    33    34    1
    25    33    35    1
    26    33    36    1
    27    30    31   ar
    28    31    32   ar
    29     5     6    1
    30     6     7    1
    31    13    14   ar
    32    14    15   ar
    33    15    16   ar
    34    16    17   ar
    35    17    18   ar
    36    18     9   ar
    37    17    12   ar
    38     7     2    1
    39    25    20   ar
    40    32    28   ar
    41    32    24    1
@<TRIPOS>MOLECULE
*****
 36 41 0 0 0
SMALL
GASTEIGER

@<TRIPOS>ATOM
      1 C          63.0690   85.8946   16.5475 C.3     1  UNL1        0.0770
      2 N          64.3628   89.6209   14.3817 N.pl3   1  UNL1       -0.3046
      3 C          64.7340   88.2719   13.8408 C.3     1  UNL1        0.1081
      4 C          64.3027   87.0298   14.5627 C.3     1  UNL1        0.0938
      5 N          63.5003   87.1366   15.8255 N.3     1  UNL1       -0.2695
      6 C          63.1292   88.4856   16.3665 C.3     1  UNL1        0.0938
      7 C          63.5605   89.7277   15.6445 C.3     1  UNL1        0.1081
      8 C          69.0634   94.3665   16.0048 C.3     1  UNL1        0.0521
      9 C          67.9961   93.4906   15.4185 C.ar    1  UNL1        0.0593
     10 C          67.5648   92.2485   16.1404 C.ar    1  UNL1        0.0148
     11 C          66.4975   91.3726   15.5542 C.ar    1  UNL1        0.0039
     12 C          65.8614   91.7388   14.2460 C.ar    1  UNL1        0.0310
     13 C          64.7941   90.8629   13.6598 C.ar    1  UNL1        0.0493
     14 C          64.1581   91.2292   12.3516 C.ar    1  UNL1        0.0146
     15 C          64.5894   92.4713   11.6297 C.ar    1  UNL1        0.0028
     16 C          65.6567   93.3471   12.2159 C.ar    1  UNL1        0.0192
     17 C          66.2927   92.9810   13.5241 C.ar    1  UNL1        0.0821
     18 N          67.3600   93.8568   14.1103 N.ar    1  UNL1       -0.2496
     19 C          62.2608   84.8533   15.8315 C.3     1  UNL1        0.0468
     20 C          62.8239   84.1674   14.6221 C.ar    1  UNL1        0.0146
     21 C          63.7207   82.9762   14.7849 C.ar    1  UNL1       -0.0011
     22 C          64.2837   82.2904   13.5756 C.ar    1  UNL1        0.0014
     23 C          63.9500   82.7959   12.2033 C.ar    1  UNL1        0.0206
     24 C          63.0532   83.9871   12.0404 C.ar    1  UNL1        0.0989
     25 C          62.4902   84.6729   13.2498 C.ar    1  UNL1        0.1512
     26 O          61.5933   85.8643   13.0870 O.3     1  UNL1       -0.4662
     27 C          61.2596   86.3698   11.7147 C.3     1  UNL1        0.2688
     28 C          61.8227   85.6839   10.5053 C.ar    1  UNL1        0.1689
     29 N          61.6714   85.9531    9.0374 N.ar    1  UNL1       -0.2228
     30 C          62.4748   84.9281    8.2931 C.ar    1  UNL1        0.1715
     31 C          63.1225   84.0255    9.3009 C.ar    1  UNL1        0.1045
     32 N          62.7194   84.4926   10.6682 N.ar    1  UNL1       -0.2866
     33 C          62.6071   84.8240    6.8025 C.3     1  UNL1        0.4363
     34 F          62.7395   84.7199    5.3120 F       1  UNL1       -0.1644
     35 F          64.0548   85.2034    6.9046 F       1  UNL1       -0.1644
     36 F          61.1595   84.4447    6.7004 F       1  UNL1       -0.1644
@<TRIPOS>BOND
     1     8     9    1
     2     9    10   ar
     3    10    11   ar
     4    11    12   ar
     5    12    13   ar
     6    13     2    1
     7     2     3    1
     8     3     4    1
     9     4     5    1
    10     5     1    1
    11     1    19    1
    12    19    20    1
    13    20    21   ar
    14    21    22   ar
    15    22    23   ar
    16    23    24   ar
    17    24    25   ar
    18    25    26    1
    19    26    27    1
    20    27    28    1
    21    28    29   ar
    22    29    30   ar
    23    30    33    1
    24    33    34    1
    25    33    35    1
    26    33    36    1
    27    30    31   ar
    28    31    32   ar
    29     5     6    1
    30     6     7    1
    31    13    14   ar
    32    14    15   ar
    33    15    16   ar
    34    16    17   ar
    35    17    18   ar
    36    18     9   ar
    37    17    12   ar
    38     7     2    1
    39    25    20   ar
    40    32    28   ar
    41    32    24    1
@<TRIPOS>MOLECULE
*****
 36 41 0 0 0
SMALL
GASTEIGER

@<TRIPOS>ATOM
      1 C          58.9961   90.3494    6.4104 C.3     1  UNL1        0.0770
      2 N          61.1289   92.3890    3.0132 N.pl3   1  UNL1       -0.3046
      3 C          61.8287   91.3268    3.8082 C.3     1  UNL1        0.1081
      4 C          61.1177   90.6469    4.9407 C.3     1  UNL1        0.0938
      5 N          59.7070   91.0292    5.2780 N.3     1  UNL1       -0.2695
      6 C          59.0073   92.0914    4.4829 C.3     1  UNL1        0.0938
      7 C          59.7182   92.7713    3.3505 C.3     1  UNL1        0.1081
      8 C          59.2548   93.3883   -3.5243 C.3     1  UNL1        0.0521
      9 C          59.9011   93.3084   -2.1731 C.ar    1  UNL1        0.0593
     10 C          59.1902   92.6286   -1.0407 C.ar    1  UNL1        0.0148
     11 C          59.8364   92.5487    0.3106 C.ar    1  UNL1        0.0039
     12 C          61.1936   93.1487    0.5295 C.ar    1  UNL1        0.0310
     13 C          61.8399   93.0688    1.8808 C.ar    1  UNL1        0.0493
     14 C          63.1972   93.6688    2.0997 C.ar    1  UNL1        0.0146
     15 C          63.9081   94.3487    0.9673 C.ar    1  UNL1        0.0028
     16 C          63.2619   94.4285   -0.3840 C.ar    1  UNL1        0.0192
     17 C          61.9046   93.8286   -0.6029 C.ar    1  UNL1        0.0821
     18 N          61.2584   93.9084   -1.9542 N.ar    1  UNL1       -0.2496
     19 C          59.5125   89.0470    6.9462 C.3     1  UNL1        0.0468
     20 C          60.0211   88.9645    8.3550 C.ar    1  UNL1        0.0146
     21 C          59.7899   90.1031    9.3037 C.ar    1  UNL1       -0.0011
     22 C          60.2984   90.0205   10.7124 C.ar    1  UNL1        0.0014
     23 C          61.0382   88.7994   11.1724 C.ar    1  UNL1        0.0206
     24 C          61.2694   87.6608   10.2237 C.ar    1  UNL1        0.0989
     25 C          60.7608   87.7434    8.8150 C.ar    1  UNL1        0.1512
     26 O          60.9920   86.6048    7.8662 O.3     1  UNL1       -0.4662
     27 C          61.7318   85.3836    8.3261 C.3     1  UNL1        0.2688
     28 C          62.2404   85.3011    9.7349 C.ar    1  UNL1        0.1689
     29 N          62.9973   84.2334   10.4678 N.ar    1  UNL1       -0.2228
     30 C          63.2338   84.7121   11.8695 C.ar    1  UNL1        0.1715
     31 C          62.6232   86.0757   12.0029 C.ar    1  UNL1        0.1045
     32 N          62.0092   86.4397   10.6837 N.ar    1  UNL1       -0.2866
     33 C          63.9546   83.9594   12.9484 C.3     1  UNL1        0.4363
     34 F          64.6753   83.2067   14.0273 F       1  UNL1       -0.1644
     35 F          62.9966   84.5022   13.9671 F       1  UNL1       -0.1644
     36 F          64.9126   83.4166   11.9298 F       1  UNL1       -0.1644
@<TRIPOS>BOND
     1     8     9    1
     2     9    10   ar
     3    10    11   ar
     4    11    12   ar
     5    12    13   ar
     6    13     2    1
     7     2     3    1
     8     3     4    1
     9     4     5    1
    10     5     1    1
    11     1    19    1
    12    19    20    1
    13    20    21   ar
    14    21    22   ar
    15    22    23   ar
    16    23    24   ar
    17    24    25   ar
    18    25    26    1
    19    26    27    1
    20    27    28    1
    21    28    29   ar
    22    29    30   ar
    23    30    33    1
    24    33    34    1
    25    33    35    1
    26    33    36    1
    27    30    31   ar
    28    31    32   ar
    29     5     6    1
    30     6     7    1
    31    13    14   ar
    32    14    15   ar
    33    15    16   ar
    34    16    17   ar
    35    17    18   ar
    36    18     9   ar
    37    17    12   ar
    38     7     2    1
    39    25    20   ar
    40    32    28   ar
    41    32    24    1
@<TRIPOS>MOLECULE
*****
 36 41 0 0 0
SMALL
GASTEIGER

@<TRIPOS>ATOM
      1 C          62.0640   89.5198   10.5098 C.3     1  UNL1        0.0770
      2 N          62.4370   85.4699   12.4358 N.pl3   1  UNL1       -0.3046
      3 C          61.5227   85.6609   11.2620 C.3     1  UNL1        0.1081
      4 C          61.3984   87.0109   10.6200 C.3     1  UNL1        0.0938
      5 N          62.1883   88.1698   11.1518 N.3     1  UNL1       -0.2695
      6 C          63.1026   87.9788   12.3256 C.3     1  UNL1        0.0938
      7 C          63.2269   86.6289   12.9676 C.3     1  UNL1        0.1081
      8 C          63.1629   79.2201    9.6675 C.3     1  UNL1        0.0521
      9 C          63.0125   80.4451   10.5200 C.ar    1  UNL1        0.0593
     10 C          62.8882   81.7950    9.8781 C.ar    1  UNL1        0.0148
     11 C          62.7378   83.0200   10.7306 C.ar    1  UNL1        0.0039
     12 C          62.7117   82.8950   12.2252 C.ar    1  UNL1        0.0310
     13 C          62.5612   84.1200   13.0777 C.ar    1  UNL1        0.0493
     14 C          62.5351   83.9949   14.5723 C.ar    1  UNL1        0.0146
     15 C          62.6594   82.6450   15.2143 C.ar    1  UNL1        0.0028
     16 C          62.8098   81.4200   14.3617 C.ar    1  UNL1        0.0192
     17 C          62.8360   81.5450   12.8672 C.ar    1  UNL1        0.0821
     18 N          62.9864   80.3201   12.0146 N.ar    1  UNL1       -0.2496
     19 C          62.2385   90.7610   11.3338 C.3     1  UNL1        0.0468
     20 C          63.5525   91.4846   11.3309 C.ar    1  UNL1        0.0146
     21 C          64.0981   92.0435   10.0504 C.ar    1  UNL1       -0.0011
     22 C          65.4121   92.7670   10.0476 C.ar    1  UNL1        0.0014
     23 C          66.1804   92.9316   11.3254 C.ar    1  UNL1        0.0206
     24 C          65.6347   92.3726   12.6059 C.ar    1  UNL1        0.0989
     25 C          64.3208   91.6491   12.6087 C.ar    1  UNL1        0.1512
     26 O          63.7751   91.0901   13.8893 O.3     1  UNL1       -0.4662
     27 C          64.5434   91.2547   15.1670 C.3     1  UNL1        0.2688
     28 C          65.8574   91.9782   15.1642 C.ar    1  UNL1        0.1689
     29 N          66.8321   92.2931   16.2600 N.ar    1  UNL1       -0.2228
     30 C          67.9802   93.0467   15.6566 C.ar    1  UNL1        0.1715
     31 C          67.7150   93.1975   14.1880 C.ar    1  UNL1        0.1045
     32 N          66.4030   92.5372   13.8837 N.ar    1  UNL1       -0.2866
     33 C          69.1824   93.5594   16.3928 C.3     1  UNL1        0.4363
     34 F          70.3846   94.0721   17.1289 F       1  UNL1       -0.1644
     35 F          69.5824   92.1513   16.7204 F       1  UNL1       -0.1644
     36 F          68.7825   94.9675   16.0652 F       1  UNL1       -0.1644
@<TRIPOS>BOND
     1     8     9    1
     2     9    10   ar
     3    10    11   ar
     4    11    12   ar
     5    12    13   ar
     6    13     2    1
     7     2     3    1
     8     3     4    1
     9     4     5    1
    10     5     1    1
    11     1    19    1
    12    19    20    1
    13    20    21   ar
    14    21    22   ar
    15    22    23   ar
    16    23    24   ar
    17    24    25   ar
    18    25    26    1
    19    26    27    1
    20    27    28    1
    21    28    29   ar
    22    29    30   ar
    23    30    33    1
    24    33    34    1
    25    33    35    1
    26    33    36    1
    27    30    31   ar
    28    31    32   ar
    29     5     6    1
    30     6     7    1
    31    13    14   ar
    32    14    15   ar
    33    15    16   ar
    34    16    17   ar
    35    17    18   ar
    36    18     9   ar
    37    17    12   ar
    38     7     2    1
    39    25    20   ar
    40    32    28   ar
    41    32    24    1
