@<TRIPOS>MOLECULE
*****
 38 42 0 0 0
SMALL
GASTEIGER

@<TRIPOS>ATOM
      1 C          63.5170   90.4267   14.0453 C.3     1  UNL1        0.2374
      2 C          64.1467   91.3582   13.0525 C.3     1  UNL1        0.1909
      3 C          63.8611   91.4023   11.5806 C.3     1  UNL1        0.1783
      4 O          64.7104   92.4806   10.9757 O.3     1  UNL1       -0.3267
      5 C          65.5209   93.1030   12.0737 C.3     1  UNL1        0.2296
      6 O          65.1725   92.4094   13.3573 O.3     1  UNL1       -0.3255
      7 C          66.0623   93.9644   10.9716 C.ar    1  UNL1        0.0409
      8 C          65.5161   95.3456   10.7620 C.ar    1  UNL1        0.0022
      9 C          66.0576   96.2071    9.6599 C.ar    1  UNL1        0.0113
     10 C          67.1452   95.6873    8.7672 C.ar    1  UNL1        0.0585
     11 CL         67.6867   96.5487    7.6651 Cl      1  UNL1       -0.0822
     12 C          67.6915   94.3060    8.9768 C.ar    1  UNL1        0.0226
     13 C          67.1500   93.4446   10.0789 C.ar    1  UNL1        0.0591
     14 CL         67.6962   92.0634   10.2885 Cl      1  UNL1       -0.0824
     15 C          66.4446   93.9055   12.9414 C.3     1  UNL1        0.1682
     16 N          67.2122   93.2344   14.0416 N.ar    1  UNL1       -0.3025
     17 C          67.1658   93.5959   15.4965 C.ar    1  UNL1        0.0982
     18 C          68.0859   92.6689   16.2341 C.ar    1  UNL1        0.1193
     19 N          68.7010   91.7345   15.2349 N.ar    1  UNL1       -0.2223
     20 C          68.1611   92.0840   13.8798 C.ar    1  UNL1        0.1788
     21 O          64.3091   89.2844   14.6090 O.3     1  UNL1       -0.4727
     22 C          63.6289   85.1056   13.0841 C.ar    1  UNL1        0.0481
     23 C          64.3370   85.3220   14.3886 C.ar    1  UNL1        0.0176
     24 C          64.5637   86.7149   14.8969 C.ar    1  UNL1        0.0382
     25 C          64.0824   87.8915   14.1007 C.ar    1  UNL1        0.1388
     26 C          63.3743   87.6751   12.7962 C.ar    1  UNL1        0.0382
     27 C          63.1476   86.2822   12.2879 C.ar    1  UNL1        0.0176
     28 N          62.9487   80.9269   11.5592 N.3     1  UNL1       -0.1559
     29 C          62.5673   81.2835   12.9654 C.3     1  UNL1        0.1168
     30 C          62.7940   82.6764   13.4736 C.3     1  UNL1        0.1099
     31 N          63.4022   83.7127   12.5758 N.pl3   1  UNL1       -0.3045
     32 C          63.7837   83.3561   11.1697 C.3     1  UNL1        0.1099
     33 C          63.5569   81.9632   10.6614 C.3     1  UNL1        0.1168
     34 S          62.7220   79.5340   11.0509 S.O2    1  UNL1        0.0439
     35 O          62.9674   80.0058    9.6484 O.2     1  UNL1       -0.1573
     36 O          62.4766   79.0621   12.4535 O.2     1  UNL1       -0.1573
     37 C          63.6282   77.3727    9.9294 C.3     1  UNL1        0.0289
     38 C          62.4953   78.1410   10.5426 C.3     1  UNL1        0.1692
@<TRIPOS>BOND
     1    37    38    1
     2    38    34    1
     3    34    35    2
     4    34    36    2
     5    34    28    1
     6    28    29    1
     7    29    30    1
     8    30    31    1
     9    31    22    1
    10    22    23   ar
    11    23    24   ar
    12    24    25   ar
    13    25    21    1
    14    21     1    1
    15     2     1    1
    16     2     3    1
    17     3     4    1
    18     4     5    1
    19     5    15    1
    20    15    16    1
    21    16    17   ar
    22    17    18   ar
    23    18    19   ar
    24    19    20   ar
    25     5     7    1
    26     7     8   ar
    27     8     9   ar
    28     9    10   ar
    29    10    11    1
    30    10    12   ar
    31    12    13   ar
    32    13    14    1
    33     5     6    1
    34    25    26   ar
    35    26    27   ar
    36    31    32    1
    37    32    33    1
    38    33    28    1
    39    27    22   ar
    40     6     2    1
    41    20    16   ar
    42    13     7   ar
@<TRIPOS>MOLECULE
*****
 38 42 0 0 0
SMALL
GASTEIGER

@<TRIPOS>ATOM
      1 C          58.6313   88.9573    6.6839 C.3     1  UNL1        0.2374
      2 C          59.4433   88.0074    7.5137 C.3     1  UNL1        0.1909
      3 C          59.1881   86.5381    7.6753 C.3     1  UNL1        0.1783
      4 O          60.2401   85.9827    8.5891 O.3     1  UNL1       -0.3267
      5 C          61.1454   87.1087    8.9922 C.3     1  UNL1        0.2296
      6 O          60.6530   88.3601    8.3276 O.3     1  UNL1       -0.3255
      7 C          61.8582   86.0464    9.7752 C.ar    1  UNL1        0.0409
      8 C          61.6027   85.9003   11.2461 C.ar    1  UNL1        0.0022
      9 C          62.3156   84.8379   12.0292 C.ar    1  UNL1        0.0113
     10 C          63.2839   83.9217   11.3415 C.ar    1  UNL1        0.0585
     11 CL         63.9967   82.8594   12.1246 Cl      1  UNL1       -0.0822
     12 C          63.5394   84.0679    9.8706 C.ar    1  UNL1        0.0226
     13 C          62.8266   85.1302    9.0876 C.ar    1  UNL1        0.0591
     14 CL         63.0821   85.2764    7.6167 Cl      1  UNL1       -0.0824
     15 C          62.1998   88.0128    9.5589 C.3     1  UNL1        0.1682
     16 N          61.9381   88.7660   10.8295 N.ar    1  UNL1       -0.3025
     17 C          62.9785   89.2815   11.7790 C.ar    1  UNL1        0.0982
     18 C          62.2735   89.9700   12.9098 C.ar    1  UNL1        0.1193
     19 N          60.7974   89.8800   12.6592 N.ar    1  UNL1       -0.2223
     20 C          60.5901   89.1358   11.3735 C.ar    1  UNL1        0.1788
     21 O          58.9624   90.4202    6.6789 O.3     1  UNL1       -0.4727
     22 C          61.0575   92.2409    3.1369 C.ar    1  UNL1        0.0481
     23 C          61.7661   91.2305    3.9895 C.ar    1  UNL1        0.0176
     24 C          61.0677   90.6236    5.1702 C.ar    1  UNL1        0.0382
     25 C          59.6608   91.0271    5.4982 C.ar    1  UNL1        0.1388
     26 C          58.9522   92.0375    4.6456 C.ar    1  UNL1        0.0382
     27 C          59.6506   92.6444    3.4649 C.ar    1  UNL1        0.0176
     28 N          63.1527   94.0615   -0.4051 N.3     1  UNL1       -0.1559
     29 C          61.6567   93.9531   -0.3929 C.3     1  UNL1        0.1168
     30 C          60.9583   93.3462    0.7878 C.3     1  UNL1        0.1099
     31 N          61.7559   92.8477    1.9562 N.pl3   1  UNL1       -0.3045
     32 C          63.2519   92.9561    1.9440 C.3     1  UNL1        0.1099
     33 C          63.9503   93.5630    0.7633 C.3     1  UNL1        0.1168
     34 S          63.8510   94.6684   -1.5858 S.O2    1  UNL1        0.0439
     35 O          64.9951   95.0699   -0.7027 O.2     1  UNL1       -0.1573
     36 O          62.7070   94.2668   -2.4689 O.2     1  UNL1       -0.1573
     37 C          64.5598   94.5562   -4.0828 C.3     1  UNL1        0.0289
     38 C          64.5494   95.2752   -2.7665 C.3     1  UNL1        0.1692
@<TRIPOS>BOND
     1    37    38    1
     2    38    34    1
     3    34    35    2
     4    34    36    2
     5    34    28    1
     6    28    29    1
     7    29    30    1
     8    30    31    1
     9    31    22    1
    10    22    23   ar
    11    23    24   ar
    12    24    25   ar
    13    25    21    1
    14    21     1    1
    15     2     1    1
    16     2     3    1
    17     3     4    1
    18     4     5    1
    19     5    15    1
    20    15    16    1
    21    16    17   ar
    22    17    18   ar
    23    18    19   ar
    24    19    20   ar
    25     5     7    1
    26     7     8   ar
    27     8     9   ar
    28     9    10   ar
    29    10    11    1
    30    10    12   ar
    31    12    13   ar
    32    13    14    1
    33     5     6    1
    34    25    26   ar
    35    26    27   ar
    36    31    32    1
    37    32    33    1
    38    33    28    1
    39    27    22   ar
    40     6     2    1
    41    20    16   ar
    42    13     7   ar
@<TRIPOS>MOLECULE
*****
 38 42 0 0 0
SMALL
GASTEIGER

@<TRIPOS>ATOM
      1 C          58.7667   91.4029    5.3873 C.3     1  UNL1        0.2374
      2 C          59.7223   91.9786    4.3846 C.3     1  UNL1        0.1909
      3 C          61.1342   91.5284    4.1528 C.3     1  UNL1        0.1783
      4 O          61.7183   92.3772    3.0626 O.3     1  UNL1       -0.3267
      5 C          60.6673   93.3520    2.6207 C.3     1  UNL1        0.2296
      6 O          59.4337   93.1057    3.4377 O.3     1  UNL1       -0.3255
      7 C          61.7275   93.8226    1.6697 C.ar    1  UNL1        0.0409
      8 C          62.4004   95.1448    1.8914 C.ar    1  UNL1        0.0022
      9 C          63.4606   95.6155    0.9404 C.ar    1  UNL1        0.0113
     10 C          63.8480   94.7640   -0.2322 C.ar    1  UNL1        0.0585
     11 CL         64.9082   95.2347   -1.1832 Cl      1  UNL1       -0.0822
     12 C          63.1751   93.4418   -0.4538 C.ar    1  UNL1        0.0226
     13 C          62.1149   92.9711    0.4971 C.ar    1  UNL1        0.0591
     14 CL         61.4420   91.6490    0.2756 Cl      1  UNL1       -0.0824
     15 C          59.8379   94.4252    1.9800 C.3     1  UNL1        0.1682
     16 N          59.1854   94.1767    0.6524 N.ar    1  UNL1       -0.3025
     17 C          58.4331   92.9408    0.2574 C.ar    1  UNL1        0.0982
     18 C          57.9534   93.1209   -1.1524 C.ar    1  UNL1        0.1193
     19 N          58.4093   94.4682   -1.6286 N.ar    1  UNL1       -0.2223
     20 C          59.1707   95.1208   -0.5131 C.ar    1  UNL1        0.1788
     21 O          58.6866   89.9175    5.5801 O.3     1  UNL1       -0.4727
     22 C          60.7966   87.9821    9.0517 C.ar    1  UNL1        0.0481
     23 C          60.7669   89.4769    8.9309 C.ar    1  UNL1        0.0176
     24 C          60.0636   90.1221    7.7737 C.ar    1  UNL1        0.0382
     25 C          59.3899   89.2724    6.7373 C.ar    1  UNL1        0.1388
     26 C          59.4195   87.7776    6.8581 C.ar    1  UNL1        0.0382
     27 C          60.1229   87.1325    8.0153 C.ar    1  UNL1        0.0176
     28 N          62.9066   86.0467   12.5233 N.3     1  UNL1       -0.1559
     29 C          63.0237   87.5260   12.3047 C.3     1  UNL1        0.1168
     30 C          62.3204   88.1712   11.1475 C.3     1  UNL1        0.1099
     31 N          61.4999   87.3370   10.2089 N.pl3   1  UNL1       -0.3045
     32 C          61.3827   85.8577   10.4276 C.3     1  UNL1        0.1099
     33 C          62.0861   85.2125   11.5848 C.3     1  UNL1        0.1168
     34 S          63.6099   85.4016   13.6806 S.O2    1  UNL1        0.0439
     35 O          63.9444   86.7558   14.2322 O.2     1  UNL1       -0.1573
     36 O          63.2754   84.0474   13.1289 O.2     1  UNL1       -0.1573
     37 C          64.0542   83.3155   15.1641 C.3     1  UNL1        0.0289
     38 C          64.3132   84.7565   14.8378 C.3     1  UNL1        0.1692
@<TRIPOS>BOND
     1    37    38    1
     2    38    34    1
     3    34    35    2
     4    34    36    2
     5    34    28    1
     6    28    29    1
     7    29    30    1
     8    30    31    1
     9    31    22    1
    10    22    23   ar
    11    23    24   ar
    12    24    25   ar
    13    25    21    1
    14    21     1    1
    15     2     1    1
    16     2     3    1
    17     3     4    1
    18     4     5    1
    19     5    15    1
    20    15    16    1
    21    16    17   ar
    22    17    18   ar
    23    18    19   ar
    24    19    20   ar
    25     5     7    1
    26     7     8   ar
    27     8     9   ar
    28     9    10   ar
    29    10    11    1
    30    10    12   ar
    31    12    13   ar
    32    13    14    1
    33     5     6    1
    34    25    26   ar
    35    26    27   ar
    36    31    32    1
    37    32    33    1
    38    33    28    1
    39    27    22   ar
    40     6     2    1
    41    20    16   ar
    42    13     7   ar
@<TRIPOS>MOLECULE
*****
 38 42 0 0 0
SMALL
GASTEIGER

@<TRIPOS>ATOM
      1 C          58.9177   88.3670    6.6880 C.3     1  UNL1        0.2374
      2 C          59.7420   87.4934    7.5866 C.3     1  UNL1        0.1909
      3 C          59.8888   86.0047    7.4764 C.3     1  UNL1        0.1783
      4 O          60.8017   85.5463    8.5748 O.3     1  UNL1       -0.3267
      5 C          61.2191   86.7518    9.3639 C.3     1  UNL1        0.2296
      6 O          60.5642   87.9552    8.7531 O.3     1  UNL1       -0.3255
      7 C          61.9952   85.7570   10.1750 C.ar    1  UNL1        0.0409
      8 C          61.7208   85.6084   11.6422 C.ar    1  UNL1        0.0022
      9 C          62.4969   84.6136   12.4534 C.ar    1  UNL1        0.0113
     10 C          63.5474   83.7673   11.7974 C.ar    1  UNL1        0.0585
     11 CL         64.3235   82.7725   12.6085 Cl      1  UNL1       -0.0822
     12 C          63.8218   83.9159   10.3301 C.ar    1  UNL1        0.0226
     13 C          63.0457   84.9107    9.5190 C.ar    1  UNL1        0.0591
     14 CL         63.3200   85.0593    8.0518 Cl      1  UNL1       -0.0824
     15 C          61.7988   87.7494   10.3225 C.3     1  UNL1        0.1682
     16 N          60.9572   88.8861   10.8222 N.ar    1  UNL1       -0.3025
     17 C          59.8136   88.7788   11.7867 C.ar    1  UNL1        0.0982
     18 C          59.2612   90.1561   12.0056 C.ar    1  UNL1        0.1193
     19 N          60.0634   91.1145   11.1764 N.ar    1  UNL1       -0.2223
     20 C          61.1117   90.3296   10.4449 C.ar    1  UNL1        0.1788
     21 O          58.9855   89.8592    6.8246 O.3     1  UNL1       -0.4727
     22 C          60.5019   92.3648    3.4081 C.ar    1  UNL1        0.0481
     23 C          61.4424   91.4649    4.1534 C.ar    1  UNL1        0.0176
     24 C          60.9369   90.6297    5.2923 C.ar    1  UNL1        0.0382
     25 C          59.4910   90.6944    5.6858 C.ar    1  UNL1        0.1388
     26 C          58.5505   91.5943    4.9405 C.ar    1  UNL1        0.0382
     27 C          59.0559   92.4295    3.8016 C.ar    1  UNL1        0.0176
     28 N          62.0183   94.8705   -0.0083 N.3     1  UNL1       -0.1559
     29 C          62.8726   93.7732    0.5539 C.3     1  UNL1        0.1168
     30 C          62.3671   92.9380    1.6928 C.3     1  UNL1        0.1099
     31 N          61.0074   93.2000    2.2693 N.pl3   1  UNL1       -0.3045
     32 C          60.1531   94.2973    1.7070 C.3     1  UNL1        0.1099
     33 C          60.6586   95.1325    0.5682 C.3     1  UNL1        0.1168
     34 S          62.5238   95.7057   -1.1472 S.O2    1  UNL1        0.0439
     35 O          61.1131   96.0606   -1.5130 O.2     1  UNL1       -0.1573
     36 O          63.9345   95.3508   -0.7813 O.2     1  UNL1       -0.1573
     37 C          64.4733   96.4692   -2.6855 C.3     1  UNL1        0.0289
     38 C          63.0293   96.5409   -2.2860 C.3     1  UNL1        0.1692
@<TRIPOS>BOND
     1    37    38    1
     2    38    34    1
     3    34    35    2
     4    34    36    2
     5    34    28    1
     6    28    29    1
     7    29    30    1
     8    30    31    1
     9    31    22    1
    10    22    23   ar
    11    23    24   ar
    12    24    25   ar
    13    25    21    1
    14    21     1    1
    15     2     1    1
    16     2     3    1
    17     3     4    1
    18     4     5    1
    19     5    15    1
    20    15    16    1
    21    16    17   ar
    22    17    18   ar
    23    18    19   ar
    24    19    20   ar
    25     5     7    1
    26     7     8   ar
    27     8     9   ar
    28     9    10   ar
    29    10    11    1
    30    10    12   ar
    31    12    13   ar
    32    13    14    1
    33     5     6    1
    34    25    26   ar
    35    26    27   ar
    36    31    32    1
    37    32    33    1
    38    33    28    1
    39    27    22   ar
    40     6     2    1
    41    20    16   ar
    42    13     7   ar
@<TRIPOS>MOLECULE
*****
 38 42 0 0 0
SMALL
GASTEIGER

@<TRIPOS>ATOM
      1 C          58.6502   91.6075    5.1546 C.3     1  UNL1        0.2374
      2 C          59.6138   92.1750    4.1550 C.3     1  UNL1        0.1909
      3 C          61.0980   91.9586    4.1399 C.3     1  UNL1        0.1783
      4 O          61.6640   92.7085    2.9705 O.3     1  UNL1       -0.3267
      5 C          60.5295   93.3884    2.2629 C.3     1  UNL1        0.2296
      6 O          59.2624   93.0587    2.9949 O.3     1  UNL1       -0.3255
      7 C          61.6064   93.8818    1.3428 C.ar    1  UNL1        0.0409
      8 C          62.4204   92.9037    0.5484 C.ar    1  UNL1        0.0022
      9 C          63.4973   93.3971   -0.3718 C.ar    1  UNL1        0.0113
     10 C          63.7603   94.8685   -0.4976 C.ar    1  UNL1        0.0585
     11 CL         64.8373   95.3619   -1.4178 Cl      1  UNL1       -0.0822
     12 C          62.9463   95.8466    0.2967 C.ar    1  UNL1        0.0226
     13 C          61.8694   95.3532    1.2168 C.ar    1  UNL1        0.0591
     14 CL         61.0555   96.3312    2.0112 Cl      1  UNL1       -0.0824
     15 C          59.6200   94.1715    1.3629 C.3     1  UNL1        0.1682
     16 N          59.0463   93.5301    0.1344 N.ar    1  UNL1       -0.3025
     17 C          57.6589   92.9775   -0.0056 C.ar    1  UNL1        0.0982
     18 C          57.5144   92.4345   -1.3964 C.ar    1  UNL1        0.1193
     19 N          58.8126   92.6516   -2.1159 N.ar    1  UNL1       -0.2223
     20 C          59.7593   93.3286   -1.1698 C.ar    1  UNL1        0.1788
     21 O          58.5356   90.1217    5.3260 O.3     1  UNL1       -0.4727
     22 C          60.5845   88.0905    8.7794 C.ar    1  UNL1        0.0481
     23 C          59.8355   87.2755    7.7672 C.ar    1  UNL1        0.0176
     24 C          59.1525   87.9526    6.6160 C.ar    1  UNL1        0.0382
     25 C          59.2186   89.4446    6.4771 C.ar    1  UNL1        0.1388
     26 C          59.9676   90.2596    7.4894 C.ar    1  UNL1        0.0382
     27 C          60.6506   89.5825    8.6405 C.ar    1  UNL1        0.0176
     28 N          62.6334   86.0592   12.2328 N.3     1  UNL1       -0.1559
     29 C          62.6525   87.5551   12.1241 C.3     1  UNL1        0.1168
     30 C          61.9695   88.2322   10.9729 C.3     1  UNL1        0.1099
     31 N          61.2675   87.4134    9.9306 N.pl3   1  UNL1       -0.3045
     32 C          61.2484   85.9175   10.0393 C.3     1  UNL1        0.1099
     33 C          61.9313   85.2404   11.1905 C.3     1  UNL1        0.1168
     34 S          63.3164   85.3821   13.3840 S.O2    1  UNL1        0.0439
     35 O          62.7364   84.0671   12.9546 O.2     1  UNL1       -0.1573
     36 O          63.8963   86.6972   13.8134 O.2     1  UNL1       -0.1573
     37 C          65.4607   84.9365   14.7815 C.3     1  UNL1        0.0289
     38 C          63.9993   84.7051   14.5351 C.3     1  UNL1        0.1692
@<TRIPOS>BOND
     1    37    38    1
     2    38    34    1
     3    34    35    2
     4    34    36    2
     5    34    28    1
     6    28    29    1
     7    29    30    1
     8    30    31    1
     9    31    22    1
    10    22    23   ar
    11    23    24   ar
    12    24    25   ar
    13    25    21    1
    14    21     1    1
    15     2     1    1
    16     2     3    1
    17     3     4    1
    18     4     5    1
    19     5    15    1
    20    15    16    1
    21    16    17   ar
    22    17    18   ar
    23    18    19   ar
    24    19    20   ar
    25     5     7    1
    26     7     8   ar
    27     8     9   ar
    28     9    10   ar
    29    10    11    1
    30    10    12   ar
    31    12    13   ar
    32    13    14    1
    33     5     6    1
    34    25    26   ar
    35    26    27   ar
    36    31    32    1
    37    32    33    1
    38    33    28    1
    39    27    22   ar
    40     6     2    1
    41    20    16   ar
    42    13     7   ar
@<TRIPOS>MOLECULE
*****
 38 42 0 0 0
SMALL
GASTEIGER

@<TRIPOS>ATOM
      1 C          63.0619   91.6078    9.7169 C.3     1  UNL1        0.2374
      2 C          64.0709   91.8539   10.7992 C.3     1  UNL1        0.1909
      3 C          63.8967   91.5387   12.2553 C.3     1  UNL1        0.1783
      4 O          65.1495   91.9483   12.9714 O.3     1  UNL1       -0.3267
      5 C          66.0979   92.5168   11.9579 C.3     1  UNL1        0.2296
      6 O          65.4314   92.4585   10.6153 O.3     1  UNL1       -0.3255
      7 C          67.0022   92.7021   13.1401 C.ar    1  UNL1        0.0409
      8 C          66.5715   93.5703   14.2850 C.ar    1  UNL1        0.0022
      9 C          67.4759   93.7556   15.4673 C.ar    1  UNL1        0.0113
     10 C          68.8109   93.0728   15.5047 C.ar    1  UNL1        0.0585
     11 CL         69.7153   93.2581   16.6870 Cl      1  UNL1       -0.0822
     12 C          69.2416   92.2046   14.3597 C.ar    1  UNL1        0.0226
     13 C          68.3373   92.0193   13.1775 C.ar    1  UNL1        0.0591
     14 CL         68.7680   91.1511   12.0326 Cl      1  UNL1       -0.0824
     15 C          67.2354   93.1240   11.1914 C.3     1  UNL1        0.1682
     16 N          67.0473   94.4308   10.4793 N.ar    1  UNL1       -0.3025
     17 C          67.6077   94.7913    9.1356 C.ar    1  UNL1        0.0982
     18 C          67.1724   96.1897    8.8119 C.ar    1  UNL1        0.1193
     19 N          66.3429   96.6935    9.9556 N.ar    1  UNL1       -0.2223
     20 C          66.2656   95.6064   10.9862 C.ar    1  UNL1        0.1788
     21 O          61.8509   90.7683    9.9974 O.3     1  UNL1       -0.4727
     22 C          62.3340   86.5112   11.3736 C.ar    1  UNL1        0.0481
     23 C          61.6026   86.8087   10.0983 C.ar    1  UNL1        0.0176
     24 C          61.4416   88.2277    9.6395 C.ar    1  UNL1        0.0382
     25 C          62.0119   89.3492   10.4561 C.ar    1  UNL1        0.1388
     26 C          62.7433   89.0517   11.7314 C.ar    1  UNL1        0.0382
     27 C          62.9043   87.6327   12.1902 C.ar    1  UNL1        0.0176
     28 N          62.8170   82.2541   12.7498 N.3     1  UNL1       -0.1559
     29 C          62.9301   82.5885   11.2920 C.3     1  UNL1        0.1168
     30 C          62.7691   84.0075   10.8332 C.3     1  UNL1        0.1099
     31 N          62.4950   85.0922   11.8323 N.pl3   1  UNL1       -0.3045
     32 C          62.3819   84.7578   13.2902 C.3     1  UNL1        0.1099
     33 C          62.5429   83.3388   13.7489 C.3     1  UNL1        0.1168
     34 S          62.9781   80.8351   13.2086 S.O2    1  UNL1        0.0439
     35 O          62.8797   80.3646   11.7877 O.2     1  UNL1       -0.1573
     36 O          63.0765   81.3056   14.6295 O.2     1  UNL1       -0.1573
     37 C          61.9298   78.5539   13.8772 C.3     1  UNL1        0.0289
     38 C          63.1391   79.4161   13.6673 C.3     1  UNL1        0.1692
@<TRIPOS>BOND
     1    37    38    1
     2    38    34    1
     3    34    35    2
     4    34    36    2
     5    34    28    1
     6    28    29    1
     7    29    30    1
     8    30    31    1
     9    31    22    1
    10    22    23   ar
    11    23    24   ar
    12    24    25   ar
    13    25    21    1
    14    21     1    1
    15     2     1    1
    16     2     3    1
    17     3     4    1
    18     4     5    1
    19     5    15    1
    20    15    16    1
    21    16    17   ar
    22    17    18   ar
    23    18    19   ar
    24    19    20   ar
    25     5     7    1
    26     7     8   ar
    27     8     9   ar
    28     9    10   ar
    29    10    11    1
    30    10    12   ar
    31    12    13   ar
    32    13    14    1
    33     5     6    1
    34    25    26   ar
    35    26    27   ar
    36    31    32    1
    37    32    33    1
    38    33    28    1
    39    27    22   ar
    40     6     2    1
    41    20    16   ar
    42    13     7   ar
@<TRIPOS>MOLECULE
*****
 38 42 0 0 0
SMALL
GASTEIGER

@<TRIPOS>ATOM
      1 C          63.8130   90.7239   15.0282 C.3     1  UNL1        0.2374
      2 C          64.4675   91.5629   13.9710 C.3     1  UNL1        0.1909
      3 C          65.5370   92.5901   14.1973 C.3     1  UNL1        0.1783
      4 O          65.8980   93.1840   12.8681 O.3     1  UNL1       -0.3267
      5 C          65.0517   92.5239   11.8202 C.3     1  UNL1        0.2296
      6 O          64.1676   91.5219   12.5018 O.3     1  UNL1       -0.3255
      7 C          65.7911   93.4273   10.8784 C.ar    1  UNL1        0.0409
      8 C          65.2099   94.7588   10.5049 C.ar    1  UNL1        0.0022
      9 C          65.9494   95.6622    9.5630 C.ar    1  UNL1        0.0113
     10 C          67.2699   95.2342    8.9947 C.ar    1  UNL1        0.0585
     11 CL         68.0093   96.1376    8.0528 Cl      1  UNL1       -0.0822
     12 C          67.8510   93.9026    9.3682 C.ar    1  UNL1        0.0226
     13 C          67.1116   92.9993   10.3100 C.ar    1  UNL1        0.0591
     14 CL         67.6927   91.6678   10.6836 Cl      1  UNL1       -0.0824
     15 C          64.3599   92.0526   10.5755 C.3     1  UNL1        0.1682
     16 N          63.2321   91.0682   10.6710 N.ar    1  UNL1       -0.3025
     17 C          61.9582   91.2588   11.4395 C.ar    1  UNL1        0.0982
     18 C          61.1191   90.0287   11.2583 C.ar    1  UNL1        0.1193
     19 N          61.8745   89.0779   10.3778 N.ar    1  UNL1       -0.2223
     20 C          63.1804   89.7203   10.0148 C.ar    1  UNL1        0.1788
     21 O          64.5163   89.5137   15.5674 O.3     1  UNL1       -0.4727
     22 C          63.7980   85.4791   13.7082 C.ar    1  UNL1        0.0481
     23 C          64.2677   85.5772   15.1294 C.ar    1  UNL1        0.0176
     24 C          64.5071   86.9220   15.7491 C.ar    1  UNL1        0.0382
     25 C          64.2769   88.1688   14.9477 C.ar    1  UNL1        0.1388
     26 C          63.8073   88.0708   13.5265 C.ar    1  UNL1        0.0382
     27 C          63.5678   86.7260   12.9068 C.ar    1  UNL1        0.0176
     28 N          63.0798   81.4446   11.8490 N.3     1  UNL1       -0.1559
     29 C          62.3411   81.8392   13.0935 C.3     1  UNL1        0.1168
     30 C          62.5805   83.1840   13.7132 C.3     1  UNL1        0.1099
     31 N          63.5586   84.1343   13.0885 N.pl3   1  UNL1       -0.3045
     32 C          64.2973   83.7397   11.8441 C.3     1  UNL1        0.1099
     33 C          64.0579   82.3949   11.2243 C.3     1  UNL1        0.1168
     34 S          62.8404   80.0997   11.2293 S.O2    1  UNL1        0.0439
     35 O          63.2170   80.6516    9.8863 O.2     1  UNL1       -0.1573
     36 O          62.4637   79.5479   12.5723 O.2     1  UNL1       -0.1573
     37 C          63.1434   78.4508    9.2446 C.3     1  UNL1        0.0289
     38 C          62.6010   78.7549   10.6096 C.3     1  UNL1        0.1692
@<TRIPOS>BOND
     1    37    38    1
     2    38    34    1
     3    34    35    2
     4    34    36    2
     5    34    28    1
     6    28    29    1
     7    29    30    1
     8    30    31    1
     9    31    22    1
    10    22    23   ar
    11    23    24   ar
    12    24    25   ar
    13    25    21    1
    14    21     1    1
    15     2     1    1
    16     2     3    1
    17     3     4    1
    18     4     5    1
    19     5    15    1
    20    15    16    1
    21    16    17   ar
    22    17    18   ar
    23    18    19   ar
    24    19    20   ar
    25     5     7    1
    26     7     8   ar
    27     8     9   ar
    28     9    10   ar
    29    10    11    1
    30    10    12   ar
    31    12    13   ar
    32    13    14    1
    33     5     6    1
    34    25    26   ar
    35    26    27   ar
    36    31    32    1
    37    32    33    1
    38    33    28    1
    39    27    22   ar
    40     6     2    1
    41    20    16   ar
    42    13     7   ar
@<TRIPOS>MOLECULE
*****
 38 42 0 0 0
SMALL
GASTEIGER

@<TRIPOS>ATOM
      1 C          63.5096   91.9547    9.9983 C.3     1  UNL1        0.2374
      2 C          64.5692   92.2708   11.0119 C.3     1  UNL1        0.1909
      3 C          65.4222   93.5043   11.0403 C.3     1  UNL1        0.1783
      4 O          66.3421   93.4048   12.2209 O.3     1  UNL1       -0.3267
      5 C          66.0576   92.1097   12.9222 C.3     1  UNL1        0.2296
      6 O          64.9619   91.4088   12.1750 O.3     1  UNL1       -0.3255
      7 C          67.1411   92.5594   13.8568 C.ar    1  UNL1        0.0409
      8 C          66.8013   93.4086   15.0458 C.ar    1  UNL1        0.0022
      9 C          67.8849   93.8584   15.9805 C.ar    1  UNL1        0.0113
     10 C          69.3082   93.4590   15.7262 C.ar    1  UNL1        0.0585
     11 CL         70.3918   93.9088   16.6609 Cl      1  UNL1       -0.0822
     12 C          69.6480   92.6098   14.5373 C.ar    1  UNL1        0.0226
     13 C          68.5645   92.1601   13.6027 C.ar    1  UNL1        0.0591
     14 CL         68.9043   91.3109   12.4138 Cl      1  UNL1       -0.0824
     15 C          65.9997   90.9085   13.8189 C.3     1  UNL1        0.1682
     16 N          64.9222   90.7985   14.8566 N.ar    1  UNL1       -0.3025
     17 C          64.1552   89.5569   15.2029 C.ar    1  UNL1        0.0982
     18 C          63.1815   89.9019   16.2906 C.ar    1  UNL1        0.1193
     19 N          63.3468   91.3567   16.6164 N.ar    1  UNL1       -0.2223
     20 C          64.4226   91.9108   15.7302 C.ar    1  UNL1        0.1788
     21 O          62.2787   91.2027   10.4098 O.3     1  UNL1       -0.4727
     22 C          62.5752   86.8657   11.5727 C.ar    1  UNL1        0.0481
     23 C          61.9743   87.2489   10.2528 C.ar    1  UNL1        0.0176
     24 C          61.8755   88.6946    9.8652 C.ar    1  UNL1        0.0382
     25 C          62.3775   89.7570   10.7974 C.ar    1  UNL1        0.1388
     26 C          62.9784   89.3738   12.1173 C.ar    1  UNL1        0.0382
     27 C          63.0772   87.9282   12.5049 C.ar    1  UNL1        0.0176
     28 N          62.8716   82.5287   12.7356 N.3     1  UNL1       -0.1559
     29 C          62.6747   83.5763   13.7908 C.3     1  UNL1        0.1168
     30 C          62.5759   85.0220   13.4032 C.3     1  UNL1        0.1099
     31 N          62.6740   85.4200   11.9603 N.pl3   1  UNL1       -0.3045
     32 C          62.8710   84.3724   10.9051 C.3     1  UNL1        0.1099
     33 C          62.9698   82.9267   11.2928 C.3     1  UNL1        0.1168
     34 S          62.9705   81.0830   13.1233 S.O2    1  UNL1        0.0439
     35 O          62.8173   80.6868   11.6847 O.2     1  UNL1       -0.1573
     36 O          63.1236   81.4792   14.5619 O.2     1  UNL1       -0.1573
     37 C          61.8251   78.8533   13.8063 C.3     1  UNL1        0.0289
     38 C          63.0693   79.6373   13.5109 C.3     1  UNL1        0.1692
@<TRIPOS>BOND
     1    37    38    1
     2    38    34    1
     3    34    35    2
     4    34    36    2
     5    34    28    1
     6    28    29    1
     7    29    30    1
     8    30    31    1
     9    31    22    1
    10    22    23   ar
    11    23    24   ar
    12    24    25   ar
    13    25    21    1
    14    21     1    1
    15     2     1    1
    16     2     3    1
    17     3     4    1
    18     4     5    1
    19     5    15    1
    20    15    16    1
    21    16    17   ar
    22    17    18   ar
    23    18    19   ar
    24    19    20   ar
    25     5     7    1
    26     7     8   ar
    27     8     9   ar
    28     9    10   ar
    29    10    11    1
    30    10    12   ar
    31    12    13   ar
    32    13    14    1
    33     5     6    1
    34    25    26   ar
    35    26    27   ar
    36    31    32    1
    37    32    33    1
    38    33    28    1
    39    27    22   ar
    40     6     2    1
    41    20    16   ar
    42    13     7   ar
