@<TRIPOS>MOLECULE
*****
 40 43 0 0 0
SMALL
GASTEIGER

@<TRIPOS>ATOM
      1 C          60.4938   89.1062    9.0753 C.ar    1  UNL1        0.1368
      2 C          61.4601   88.0164    9.4340 C.ar    1  UNL1        0.0691
      3 C          61.3355   86.6640    8.7971 C.ar    1  UNL1        0.1432
      4 N          60.2448   86.4015    7.8015 N.ar    1  UNL1       -0.2085
      5 C          59.2785   87.4912    7.4427 C.ar    1  UNL1        0.2012
      6 N          59.4030   88.8436    8.0796 N.ar    1  UNL1       -0.2088
      7 N          62.3018   85.5742    9.1559 N.am    1  UNL1       -0.2261
      8 C          63.1643   84.9574    8.0949 C.3     1  UNL1        0.1231
      9 C          62.4056   85.1012   10.5755 C.2     1  UNL1        0.3126
     10 O          61.5431   85.7180   11.6365 O.2     1  UNL1       -0.2519
     11 N          63.3718   84.0114   10.9342 N.am    1  UNL1       -0.2663
     12 H          63.9379   83.6066   10.2378 H       1  UNL1        0.1565
     13 C          63.4756   83.5384   12.3539 C.ar    1  UNL1        0.0788
     14 C          63.7629   84.5189   13.4521 C.ar    1  UNL1        0.1060
     15 CL         63.9464   85.9725   13.1306 Cl      1  UNL1       -0.0777
     16 C          63.8667   84.0459   14.8717 C.ar    1  UNL1        0.1535
     17 C          63.6832   82.5923   15.1932 C.ar    1  UNL1        0.0756
     18 C          63.3959   81.6117   14.0951 C.ar    1  UNL1        0.1535
     19 C          63.2921   82.0848   12.6754 C.ar    1  UNL1        0.1060
     20 CL         63.0048   81.1042   11.5772 Cl      1  UNL1       -0.0777
     21 O          64.1540   85.0264   15.9699 O.3     1  UNL1       -0.4704
     22 C          63.0247   85.7372   16.6552 C.3     1  UNL1        0.2525
     23 O          63.2124   80.1581   14.4165 O.3     1  UNL1       -0.4704
     24 C          61.9409   79.4602   14.0344 C.3     1  UNL1        0.2525
     25 N          60.6183   90.4585    9.7122 N.pl3   1  UNL1       -0.2978
     26 H          59.9339   91.1462    9.5450 H       1  UNL1        0.1536
     27 C          64.1200   91.3722   12.3867 C.ar    1  UNL1       -0.0223
     28 C          62.9071   90.6898   12.9460 C.ar    1  UNL1       -0.0030
     29 C          61.7398   90.3852   12.0545 C.ar    1  UNL1        0.0143
     30 C          61.7855   90.7631   10.6037 C.ar    1  UNL1        0.0493
     31 C          62.9985   91.4456   10.0443 C.ar    1  UNL1        0.0143
     32 C          64.1657   91.7501   10.9358 C.ar    1  UNL1       -0.0030
     33 N          67.6217   92.2859   15.0612 N.3     1  UNL1       -0.2727
     34 C          66.2887   91.9481   15.6601 C.3     1  UNL1        0.0724
     35 C          65.1214   91.6435   14.7686 C.3     1  UNL1        0.0217
     36 C          65.2873   91.6768   13.2782 C.3     1  UNL1        0.0251
     37 C          66.6203   92.0147   12.6793 C.3     1  UNL1        0.0217
     38 C          67.7876   92.3193   13.5708 C.3     1  UNL1        0.0724
     39 C          69.3221   93.9899   16.0386 C.3     1  UNL1        0.0188
     40 C          68.7890   92.5905   15.9527 C.3     1  UNL1        0.0721
@<TRIPOS>BOND
     1    39    40    1
     2    40    33    1
     3    33    34    1
     4    34    35    1
     5    35    36    1
     6    36    27    1
     7    27    28   ar
     8    28    29   ar
     9    29    30   ar
    10    30    25    1
    11    25     1    1
    12     1     2   ar
    13     2     3   ar
    14     3     7    1
    15     7     8    1
    16     7     9   am
    17     9    10    2
    18     9    11   am
    19    11    13    1
    20    13    14   ar
    21    14    15    1
    22    14    16   ar
    23    16    21    1
    24    21    22    1
    25    16    17   ar
    26    17    18   ar
    27    18    23    1
    28    23    24    1
    29    18    19   ar
    30    19    20    1
    31     3     4   ar
    32     4     5   ar
    33     5     6   ar
    34    30    31   ar
    35    31    32   ar
    36    36    37    1
    37    37    38    1
    38    38    33    1
    39    32    27   ar
    40     6     1   ar
    41    19    13   ar
    42    25    26    1
    43    11    12    1
@<TRIPOS>MOLECULE
*****
 40 43 0 0 0
SMALL
GASTEIGER

@<TRIPOS>ATOM
      1 C          60.4932   89.1016    9.0652 C.ar    1  UNL1        0.1368
      2 C          61.4616   88.0138    9.4242 C.ar    1  UNL1        0.0691
      3 C          61.3378   86.6601    8.7901 C.ar    1  UNL1        0.1432
      4 N          60.2455   86.3941    7.7970 N.ar    1  UNL1       -0.2085
      5 C          59.2771   87.4819    7.4380 C.ar    1  UNL1        0.2012
      6 N          59.4010   88.8357    8.0721 N.ar    1  UNL1       -0.2088
      7 N          62.3062   85.5722    9.1492 N.am    1  UNL1       -0.2261
      8 C          63.1744   84.9612    8.0895 C.3     1  UNL1        0.1231
      9 C          62.4064   85.0954   10.5678 C.2     1  UNL1        0.3126
     10 O          61.5382   85.7064   11.6275 O.2     1  UNL1       -0.2519
     11 N          63.3747   84.0076   10.9268 N.am    1  UNL1       -0.2663
     12 H          63.9445   83.6066   10.2313 H       1  UNL1        0.1565
     13 C          63.4749   83.5308   12.3455 C.ar    1  UNL1        0.0788
     14 C          63.2752   82.0788   12.6646 C.ar    1  UNL1        0.1060
     15 CL         62.9753   81.1036   11.5650 Cl      1  UNL1       -0.0777
     16 C          63.3754   81.6020   14.0832 C.ar    1  UNL1        0.1535
     17 C          63.6754   82.5772   15.1828 C.ar    1  UNL1        0.0756
     18 C          63.8751   84.0292   14.8637 C.ar    1  UNL1        0.1535
     19 C          63.7749   84.5060   13.4450 C.ar    1  UNL1        0.1060
     20 CL         63.9746   85.9580   13.1259 Cl      1  UNL1       -0.0777
     21 O          63.1757   80.1500   14.4023 O.3     1  UNL1       -0.4704
     22 C          61.8983   79.4658   14.0151 C.3     1  UNL1        0.2525
     23 O          64.1751   85.0044   15.9632 O.3     1  UNL1       -0.4704
     24 C          63.0560   85.7382   16.6408 C.3     1  UNL1        0.2525
     25 N          60.6171   90.4553    9.6992 N.pl3   1  UNL1       -0.2978
     26 H          59.9336   91.1431    9.5289 H       1  UNL1        0.1536
     27 C          64.1128   91.3728   12.3803 C.ar    1  UNL1       -0.0223
     28 C          64.1513   91.7715   10.9348 C.ar    1  UNL1       -0.0030
     29 C          62.9861   91.4657   10.0411 C.ar    1  UNL1        0.0143
     30 C          61.7823   90.7612   10.5929 C.ar    1  UNL1        0.0493
     31 C          61.7438   90.3625   12.0384 C.ar    1  UNL1        0.0143
     32 C          62.9091   90.6683   12.9321 C.ar    1  UNL1       -0.0030
     33 N          67.6086   92.2904   15.0613 N.3     1  UNL1       -0.2727
     34 C          66.2730   91.9579   15.6577 C.3     1  UNL1        0.0724
     35 C          65.1077   91.6520   14.7640 C.3     1  UNL1        0.0217
     36 C          65.2781   91.6787   13.2740 C.3     1  UNL1        0.0251
     37 C          66.6136   92.0112   12.6776 C.3     1  UNL1        0.0217
     38 C          67.7789   92.3170   13.5713 C.3     1  UNL1        0.0724
     39 C          69.3071   93.9956   16.0395 C.3     1  UNL1        0.0188
     40 C          68.7738   92.5962   15.9550 C.3     1  UNL1        0.0721
@<TRIPOS>BOND
     1    39    40    1
     2    40    33    1
     3    33    34    1
     4    34    35    1
     5    35    36    1
     6    36    27    1
     7    27    28   ar
     8    28    29   ar
     9    29    30   ar
    10    30    25    1
    11    25     1    1
    12     1     2   ar
    13     2     3   ar
    14     3     7    1
    15     7     8    1
    16     7     9   am
    17     9    10    2
    18     9    11   am
    19    11    13    1
    20    13    14   ar
    21    14    15    1
    22    14    16   ar
    23    16    21    1
    24    21    22    1
    25    16    17   ar
    26    17    18   ar
    27    18    23    1
    28    23    24    1
    29    18    19   ar
    30    19    20    1
    31     3     4   ar
    32     4     5   ar
    33     5     6   ar
    34    30    31   ar
    35    31    32   ar
    36    36    37    1
    37    37    38    1
    38    38    33    1
    39    32    27   ar
    40     6     1   ar
    41    19    13   ar
    42    25    26    1
    43    11    12    1
@<TRIPOS>MOLECULE
*****
 40 43 0 0 0
SMALL
GASTEIGER

@<TRIPOS>ATOM
      1 C          59.3850   88.7389    7.7449 C.ar    1  UNL1        0.1368
      2 C          59.8037   89.5329    8.9468 C.ar    1  UNL1        0.0691
      3 C          60.6668   88.9021    9.9989 C.ar    1  UNL1        0.1432
      4 N          61.1112   87.4772    9.8494 N.ar    1  UNL1       -0.2085
      5 C          60.6926   86.6832    8.6476 C.ar    1  UNL1        0.2012
      6 N          59.8294   87.3140    7.5954 N.ar    1  UNL1       -0.2088
      7 N          61.0855   89.6961   11.2008 N.am    1  UNL1       -0.2261
      8 C          60.0840   90.0266   12.2674 C.3     1  UNL1        0.1231
      9 C          62.5056   90.1595   11.3359 C.2     1  UNL1        0.3126
     10 O          63.5072   89.8291   10.2693 O.2     1  UNL1       -0.2519
     11 N          62.9243   90.9535   12.5377 N.am    1  UNL1       -0.2663
     12 H          62.2669   91.1704   13.2378 H       1  UNL1        0.1565
     13 C          64.3445   91.4170   12.6729 C.ar    1  UNL1        0.0788
     14 C          64.9790   92.2199   11.5762 C.ar    1  UNL1        0.1060
     15 CL         64.1933   92.5594   10.3443 Cl      1  UNL1       -0.0777
     16 C          66.3991   92.6834   11.7114 C.ar    1  UNL1        0.1535
     17 C          67.1848   92.3440   12.9433 C.ar    1  UNL1        0.0756
     18 C          66.5503   91.5411   14.0400 C.ar    1  UNL1        0.1535
     19 C          65.1301   91.0776   13.9048 C.ar    1  UNL1        0.1060
     20 CL         64.4956   90.2747   15.0015 Cl      1  UNL1       -0.0777
     21 O          67.0337   93.4864   10.6147 O.3     1  UNL1       -0.4704
     22 C          67.9477   92.8198    9.6298 C.3     1  UNL1        0.2525
     23 O          67.3359   91.2017   15.2719 O.3     1  UNL1       -0.4704
     24 C          68.0932   92.2739   15.9976 C.3     1  UNL1        0.2525
     25 N          58.5220   89.3697    6.6927 N.pl3   1  UNL1       -0.2978
     26 H          57.5597   89.1647    6.6575 H       1  UNL1        0.1536
     27 C          60.3312   92.1989    3.6974 C.ar    1  UNL1       -0.0223
     28 C          61.2021   91.2151    4.4209 C.ar    1  UNL1       -0.0030
     29 C          60.5990   90.2720    5.4193 C.ar    1  UNL1        0.0143
     30 C          59.1250   90.3128    5.6943 C.ar    1  UNL1        0.0493
     31 C          58.2541   91.2966    4.9708 C.ar    1  UNL1        0.0143
     32 C          58.8572   92.2397    3.9723 C.ar    1  UNL1       -0.0030
     33 N          62.1404   95.0282    0.7020 N.3     1  UNL1       -0.2727
     34 C          62.9221   93.8401    1.1788 C.3     1  UNL1        0.0724
     35 C          62.3191   92.8970    2.1772 C.3     1  UNL1        0.0217
     36 C          60.9342   93.1420    2.6989 C.3     1  UNL1        0.0251
     37 C          60.1525   94.3300    2.2221 C.3     1  UNL1        0.0217
     38 C          60.7555   95.2731    1.2237 C.3     1  UNL1        0.0724
     39 C          64.2100   96.2818   -0.2441 C.3     1  UNL1        0.0188
     40 C          62.7434   95.9712   -0.2965 C.3     1  UNL1        0.0721
@<TRIPOS>BOND
     1    39    40    1
     2    40    33    1
     3    33    34    1
     4    34    35    1
     5    35    36    1
     6    36    27    1
     7    27    28   ar
     8    28    29   ar
     9    29    30   ar
    10    30    25    1
    11    25     1    1
    12     1     2   ar
    13     2     3   ar
    14     3     7    1
    15     7     8    1
    16     7     9   am
    17     9    10    2
    18     9    11   am
    19    11    13    1
    20    13    14   ar
    21    14    15    1
    22    14    16   ar
    23    16    21    1
    24    21    22    1
    25    16    17   ar
    26    17    18   ar
    27    18    23    1
    28    23    24    1
    29    18    19   ar
    30    19    20    1
    31     3     4   ar
    32     4     5   ar
    33     5     6   ar
    34    30    31   ar
    35    31    32   ar
    36    36    37    1
    37    37    38    1
    38    38    33    1
    39    32    27   ar
    40     6     1   ar
    41    19    13   ar
    42    25    26    1
    43    11    12    1
@<TRIPOS>MOLECULE
*****
 40 43 0 0 0
SMALL
GASTEIGER

@<TRIPOS>ATOM
      1 C          59.3685   88.8614    7.6719 C.ar    1  UNL1        0.1368
      2 C          59.7962   89.6245    8.8905 C.ar    1  UNL1        0.0691
      3 C          60.6557   88.9629    9.9265 C.ar    1  UNL1        0.1432
      4 N          61.0877   87.5380    9.7439 N.ar    1  UNL1       -0.2085
      5 C          60.6601   86.7749    8.5255 C.ar    1  UNL1        0.2012
      6 N          59.8005   87.4366    7.4894 N.ar    1  UNL1       -0.2088
      7 N          61.0834   89.7260   11.1450 N.am    1  UNL1       -0.2261
      8 C          60.0924   90.0197   12.2321 C.3     1  UNL1        0.1231
      9 C          62.5020   90.1953   11.2765 C.2     1  UNL1        0.3126
     10 O          63.4929   89.9016   10.1894 O.2     1  UNL1       -0.2519
     11 N          62.9295   90.9584   12.4950 N.am    1  UNL1       -0.2663
     12 H          62.2791   91.1512   13.2085 H       1  UNL1        0.1565
     13 C          64.3482   91.4278   12.6265 C.ar    1  UNL1        0.0788
     14 C          65.1404   91.0864   13.8536 C.ar    1  UNL1        0.1060
     15 CL         64.5141   90.2756   14.9492 Cl      1  UNL1       -0.0777
     16 C          66.5590   91.5558   13.9851 C.ar    1  UNL1        0.1535
     17 C          67.1853   92.3666   12.8895 C.ar    1  UNL1        0.0756
     18 C          66.3930   92.7080   11.6624 C.ar    1  UNL1        0.1535
     19 C          64.9745   92.2386   11.5309 C.ar    1  UNL1        0.1060
     20 CL         64.1822   92.5800   10.3038 Cl      1  UNL1       -0.0777
     21 O          67.3513   91.2144   15.2122 O.3     1  UNL1       -0.4704
     22 C          67.8438   92.3064   16.1148 C.3     1  UNL1        0.2525
     23 O          67.0193   93.5188   10.5668 O.3     1  UNL1       -0.4704
     24 C          67.9474   92.8649    9.5865 C.3     1  UNL1        0.2525
     25 N          58.5090   89.5231    6.6359 N.pl3   1  UNL1       -0.2978
     26 H          57.5394   89.3534    6.6193 H       1  UNL1        0.1536
     27 C          60.3622   92.2841    3.6040 C.ar    1  UNL1       -0.0223
     28 C          58.8863   92.3396    3.8656 C.ar    1  UNL1       -0.0030
     29 C          58.2685   91.4193    4.8762 C.ar    1  UNL1        0.0143
     30 C          59.1267   90.4434    5.6253 C.ar    1  UNL1        0.0493
     31 C          60.6027   90.3879    5.3637 C.ar    1  UNL1        0.0143
     32 C          61.2204   91.3082    4.3530 C.ar    1  UNL1       -0.0030
     33 N          62.2154   95.0450    0.5720 N.3     1  UNL1       -0.2727
     34 C          62.9248   93.7852    0.9715 C.3     1  UNL1        0.0724
     35 C          62.3070   92.8649    1.9822 C.3     1  UNL1        0.0217
     36 C          60.9799   93.2044    2.5933 C.3     1  UNL1        0.0251
     37 C          60.2706   94.4642    2.1938 C.3     1  UNL1        0.0217
     38 C          60.8883   95.3845    1.1832 C.3     1  UNL1        0.0724
     39 C          64.2649   95.7797   -0.8457 C.3     1  UNL1        0.0188
     40 C          62.8332   95.9653   -0.4386 C.3     1  UNL1        0.0721
@<TRIPOS>BOND
     1    39    40    1
     2    40    33    1
     3    33    34    1
     4    34    35    1
     5    35    36    1
     6    36    27    1
     7    27    28   ar
     8    28    29   ar
     9    29    30   ar
    10    30    25    1
    11    25     1    1
    12     1     2   ar
    13     2     3   ar
    14     3     7    1
    15     7     8    1
    16     7     9   am
    17     9    10    2
    18     9    11   am
    19    11    13    1
    20    13    14   ar
    21    14    15    1
    22    14    16   ar
    23    16    21    1
    24    21    22    1
    25    16    17   ar
    26    17    18   ar
    27    18    23    1
    28    23    24    1
    29    18    19   ar
    30    19    20    1
    31     3     4   ar
    32     4     5   ar
    33     5     6   ar
    34    30    31   ar
    35    31    32   ar
    36    36    37    1
    37    37    38    1
    38    38    33    1
    39    32    27   ar
    40     6     1   ar
    41    19    13   ar
    42    25    26    1
    43    11    12    1
@<TRIPOS>MOLECULE
*****
 40 43 0 0 0
SMALL
GASTEIGER

@<TRIPOS>ATOM
      1 C          59.5929   89.2312    7.8582 C.ar    1  UNL1        0.1368
      2 C          60.4414   88.0147    8.0821 C.ar    1  UNL1        0.0691
      3 C          61.1659   87.8346    9.3831 C.ar    1  UNL1        0.1432
      4 N          61.0418   88.8710   10.4603 N.ar    1  UNL1       -0.2085
      5 C          60.1933   90.0875   10.2365 C.ar    1  UNL1        0.2012
      6 N          59.4688   90.2677    8.9355 N.ar    1  UNL1       -0.2088
      7 N          62.0144   86.6180    9.6069 N.am    1  UNL1       -0.2261
      8 C          62.7537   85.9977    8.4586 C.3     1  UNL1        0.1231
      9 C          62.1236   86.0219   10.9790 C.2     1  UNL1        0.3126
     10 O          61.3844   86.6422   12.1273 O.2     1  UNL1       -0.2519
     11 N          62.9722   84.8054   11.2027 N.am    1  UNL1       -0.2663
     12 H          63.4574   84.3982   10.4490 H       1  UNL1        0.1565
     13 C          63.0814   84.2092   12.5749 C.ar    1  UNL1        0.0788
     14 C          62.7368   82.7661   12.7952 C.ar    1  UNL1        0.1060
     15 CL         62.2830   81.9191   11.6434 Cl      1  UNL1       -0.0777
     16 C          62.8461   82.1699   14.1672 C.ar    1  UNL1        0.1535
     17 C          63.3000   83.0169   15.3190 C.ar    1  UNL1        0.0756
     18 C          63.6446   84.4601   15.0987 C.ar    1  UNL1        0.1535
     19 C          63.5353   85.0562   13.7266 C.ar    1  UNL1        0.1060
     20 CL         63.8799   86.4994   13.5063 Cl      1  UNL1       -0.0777
     21 O          62.5015   80.7267   14.3876 O.3     1  UNL1       -0.4704
     22 C          61.0831   80.2628   14.2363 C.3     1  UNL1        0.2525
     23 O          64.0984   85.3071   16.2505 O.3     1  UNL1       -0.4704
     24 C          63.0929   86.0620   17.0683 C.3     1  UNL1        0.2525
     25 N          58.8684   89.4113    6.5572 N.pl3   1  UNL1       -0.2978
     26 H          58.0603   88.8823    6.3664 H       1  UNL1        0.1536
     27 C          60.3884   92.3698    3.5262 C.ar    1  UNL1       -0.0223
     28 C          58.9303   92.3373    3.8768 C.ar    1  UNL1       -0.0030
     29 C          58.4237   91.3512    4.8872 C.ar    1  UNL1        0.0143
     30 C          59.3751   90.3975    5.5469 C.ar    1  UNL1        0.0493
     31 C          60.8331   90.4300    5.1963 C.ar    1  UNL1        0.0143
     32 C          61.3398   91.4161    4.1860 C.ar    1  UNL1       -0.0030
     33 N          61.9084   95.3283    0.4952 N.3     1  UNL1       -0.2727
     34 C          62.7315   94.1246    0.8465 C.3     1  UNL1        0.0724
     35 C          62.2248   93.1384    1.8569 C.3     1  UNL1        0.0217
     36 C          60.8950   93.3560    2.5159 C.3     1  UNL1        0.0251
     37 C          60.0720   94.5597    2.1646 C.3     1  UNL1        0.0217
     38 C          60.5786   95.5459    1.1542 C.3     1  UNL1        0.0724
     39 C          63.6556   96.0117   -1.3020 C.3     1  UNL1        0.0188
     40 C          62.4150   96.3145   -0.5151 C.3     1  UNL1        0.0721
@<TRIPOS>BOND
     1    39    40    1
     2    40    33    1
     3    33    34    1
     4    34    35    1
     5    35    36    1
     6    36    27    1
     7    27    28   ar
     8    28    29   ar
     9    29    30   ar
    10    30    25    1
    11    25     1    1
    12     1     2   ar
    13     2     3   ar
    14     3     7    1
    15     7     8    1
    16     7     9   am
    17     9    10    2
    18     9    11   am
    19    11    13    1
    20    13    14   ar
    21    14    15    1
    22    14    16   ar
    23    16    21    1
    24    21    22    1
    25    16    17   ar
    26    17    18   ar
    27    18    23    1
    28    23    24    1
    29    18    19   ar
    30    19    20    1
    31     3     4   ar
    32     4     5   ar
    33     5     6   ar
    34    30    31   ar
    35    31    32   ar
    36    36    37    1
    37    37    38    1
    38    38    33    1
    39    32    27   ar
    40     6     1   ar
    41    19    13   ar
    42    25    26    1
    43    11    12    1
@<TRIPOS>MOLECULE
*****
 40 43 0 0 0
SMALL
GASTEIGER

@<TRIPOS>ATOM
      1 C          59.6014   89.2175    7.8582 C.ar    1  UNL1        0.1368
      2 C          60.4429   87.9959    8.0815 C.ar    1  UNL1        0.0691
      3 C          61.1719   87.8144    9.3798 C.ar    1  UNL1        0.1432
      4 N          61.0594   88.8544   10.4548 N.ar    1  UNL1       -0.2085
      5 C          60.2180   90.0759   10.2316 C.ar    1  UNL1        0.2012
      6 N          59.4889   90.2575    8.9333 N.ar    1  UNL1       -0.2088
      7 N          62.0134   86.5929    9.6030 N.am    1  UNL1       -0.2261
      8 C          62.7494   85.9690    8.4545 C.3     1  UNL1        0.1231
      9 C          62.1189   85.9953   10.9748 C.2     1  UNL1        0.3126
     10 O          61.3830   86.6192   12.1233 O.2     1  UNL1       -0.2519
     11 N          62.9604   84.7739   11.1980 N.am    1  UNL1       -0.2663
     12 H          63.4435   84.3644   10.4442 H       1  UNL1        0.1565
     13 C          63.0660   84.1762   12.5698 C.ar    1  UNL1        0.0788
     14 C          63.5387   85.0159   13.7193 C.ar    1  UNL1        0.1060
     15 CL         63.9058   86.4532   13.4972 Cl      1  UNL1       -0.0777
     16 C          63.6442   84.4182   15.0911 C.ar    1  UNL1        0.1535
     17 C          63.2771   82.9809   15.3132 C.ar    1  UNL1        0.0756
     18 C          62.8044   82.1413   14.1637 C.ar    1  UNL1        0.1535
     19 C          62.6989   82.7389   12.7920 C.ar    1  UNL1        0.1060
     20 CL         62.2262   81.8992   11.6423 Cl      1  UNL1       -0.0777
     21 O          64.1169   85.2579   16.2407 O.3     1  UNL1       -0.4704
     22 C          63.1422   86.1113   16.9968 C.3     1  UNL1        0.2525
     23 O          62.4373   80.7039   14.3858 O.3     1  UNL1       -0.4704
     24 C          61.0155   80.2579   14.2143 C.3     1  UNL1        0.2525
     25 N          58.8724   89.3990    6.5599 N.pl3   1  UNL1       -0.2978
     26 H          58.0615   88.8729    6.3730 H       1  UNL1        0.1536
     27 C          60.3919   92.3478    3.5194 C.ar    1  UNL1       -0.0223
     28 C          58.9367   92.3276    3.8824 C.ar    1  UNL1       -0.0030
     29 C          58.4302   91.3446    4.8960 C.ar    1  UNL1        0.0143
     30 C          59.3789   90.3819    5.5464 C.ar    1  UNL1        0.0493
     31 C          60.8341   90.4022    5.1833 C.ar    1  UNL1        0.0143
     32 C          61.3406   91.3852    4.1698 C.ar    1  UNL1       -0.0030
     33 N          61.9115   95.2967    0.4788 N.3     1  UNL1       -0.2727
     34 C          62.7413   94.1020    0.8447 C.3     1  UNL1        0.0724
     35 C          62.2347   93.1190    1.8583 C.3     1  UNL1        0.0217
     36 C          60.8984   93.3308    2.5058 C.3     1  UNL1        0.0251
     37 C          60.0687   94.5256    2.1399 C.3     1  UNL1        0.0217
     38 C          60.5752   95.5085    1.1264 C.3     1  UNL1        0.0724
     39 C          63.5452   95.9008   -1.4488 C.3     1  UNL1        0.0188
     40 C          62.4180   96.2797   -0.5347 C.3     1  UNL1        0.0721
@<TRIPOS>BOND
     1    39    40    1
     2    40    33    1
     3    33    34    1
     4    34    35    1
     5    35    36    1
     6    36    27    1
     7    27    28   ar
     8    28    29   ar
     9    29    30   ar
    10    30    25    1
    11    25     1    1
    12     1     2   ar
    13     2     3   ar
    14     3     7    1
    15     7     8    1
    16     7     9   am
    17     9    10    2
    18     9    11   am
    19    11    13    1
    20    13    14   ar
    21    14    15    1
    22    14    16   ar
    23    16    21    1
    24    21    22    1
    25    16    17   ar
    26    17    18   ar
    27    18    23    1
    28    23    24    1
    29    18    19   ar
    30    19    20    1
    31     3     4   ar
    32     4     5   ar
    33     5     6   ar
    34    30    31   ar
    35    31    32   ar
    36    36    37    1
    37    37    38    1
    38    38    33    1
    39    32    27   ar
    40     6     1   ar
    41    19    13   ar
    42    25    26    1
    43    11    12    1
