@<TRIPOS>MOLECULE
*****
 39 43 0 0 0
SMALL
GASTEIGER

@<TRIPOS>ATOM
      1 C          64.2096   88.6799   14.4592 C.ar    1  UNL1        0.0830
      2 C          64.1806   88.3638   15.9252 C.ar    1  UNL1        0.0208
      3 C          63.8266   86.9814   16.3875 C.ar    1  UNL1        0.0238
      4 C          63.5017   85.9152   15.3838 C.ar    1  UNL1        0.1173
      5 N          63.1199   84.4729   15.5396 N.ar    1  UNL1       -0.2248
      6 C          62.9130   83.8976   14.1698 C.ar    1  UNL1        0.1515
      7 N          63.1669   84.9844   13.1675 N.ar    1  UNL1       -0.2754
      8 C          63.5307   86.2312   13.9178 C.ar    1  UNL1        0.1665
      9 N          63.8847   87.6136   13.4555 N.ar    1  UNL1       -0.2264
     10 C          62.5211   82.4839   13.8572 C.ar    1  UNL1        0.0657
     11 C          61.1388   81.9998   14.1808 C.ar    1  UNL1        0.0074
     12 C          60.7469   80.5861   13.8682 C.ar    1  UNL1        0.0209
     13 C          61.7373   79.6564   13.2319 C.ar    1  UNL1        0.1003
     14 N          63.1196   80.1405   12.9083 N.ar    1  UNL1       -0.2295
     15 C          63.5115   81.5542   13.2209 C.ar    1  UNL1        0.1282
     16 N          64.8939   82.0384   12.8973 N.pl3   1  UNL1       -0.3425
     17 H          65.5440   81.4283   12.4796 H       1  UNL1        0.1437
     18 H          65.1511   82.9663   13.1025 H       1  UNL1        0.1437
     19 C          65.7512   92.3365   14.4062 C.ar    1  UNL1        0.0503
     20 C          65.2715   92.8271   13.0722 C.ar    1  UNL1        0.0147
     21 C          64.4379   91.9352   12.2006 C.ar    1  UNL1        0.0013
     22 C          64.0839   90.5528   12.6630 C.ar    1  UNL1        0.0016
     23 C          64.5636   90.0623   13.9969 C.ar    1  UNL1        0.0189
     24 C          65.3972   90.9542   14.8685 C.ar    1  UNL1        0.0162
     25 C          68.9088   94.1516   15.9825 C.3     1  UNL1        0.0949
     26 C          68.0752   93.2598   15.1109 C.2     1  UNL1        0.2266
     27 O          68.7319   92.3994   14.0724 O.2     1  UNL1       -0.2748
     28 N          66.5848   93.2284   15.2778 N.am    1  UNL1       -0.2839
     29 H          66.1538   93.7931   15.9594 H       1  UNL1        0.1549
     30 C          63.0734   84.8481   11.6766 C.ar    1  UNL1        0.0667
     31 C          62.1009   85.6909   10.9060 C.ar    1  UNL1        0.0173
     32 C          62.0074   85.5547    9.4151 C.ar    1  UNL1       -0.0014
     33 C          62.8864   84.5756    8.6948 C.ar    1  UNL1       -0.0065
     34 C          63.8589   83.7329    9.4655 C.ar    1  UNL1       -0.0014
     35 C          63.9524   83.8691   10.9564 C.ar    1  UNL1        0.0173
     36 C          62.7929   84.4394    7.2040 C.3     1  UNL1        0.0922
     37 N          61.4820   84.6654    6.5110 N.3     1  UNL1       -0.3175
     38 H          60.8204   83.9411    6.7904 H       1  UNL1        0.1192
     39 H          61.6204   84.6282    5.5011 H       1  UNL1        0.1192
@<TRIPOS>BOND
     1    25    26    1
     2    26    27    2
     3    26    28   am
     4    28    19    1
     5    19    20   ar
     6    20    21   ar
     7    21    22   ar
     8    22    23   ar
     9    23     1    1
    10     1     2   ar
    11     2     3   ar
    12     3     4   ar
    13     4     5   ar
    14     5     6   ar
    15     6    10    1
    16    10    11   ar
    17    11    12   ar
    18    12    13   ar
    19    13    14   ar
    20    14    15   ar
    21    15    16    1
    22     6     7   ar
    23     7    30    1
    24    30    31   ar
    25    31    32   ar
    26    32    33   ar
    27    33    36    1
    28    36    37    1
    29    33    34   ar
    30    34    35   ar
    31     7     8   ar
    32     8     9   ar
    33    23    24   ar
    34    24    19   ar
    35     9     1   ar
    36     8     4   ar
    37    15    10   ar
    38    35    30   ar
    39    28    29    1
    40    16    17    1
    41    16    18    1
    42    37    38    1
    43    37    39    1
@<TRIPOS>MOLECULE
*****
 39 43 0 0 0
SMALL
GASTEIGER

@<TRIPOS>ATOM
      1 C          62.9504   89.9157   12.9160 C.ar    1  UNL1        0.0830
      2 C          62.5127   90.9805   11.9545 C.ar    1  UNL1        0.0208
      3 C          62.0716   90.6060   10.5706 C.ar    1  UNL1        0.0238
      4 C          62.0682   89.1667   10.1483 C.ar    1  UNL1        0.1173
      5 N          61.6889   88.4998    8.8592 N.ar    1  UNL1       -0.2248
      6 C          61.8922   87.0228    9.0242 C.ar    1  UNL1        0.1515
      7 N          62.3972   86.7769   10.4151 N.ar    1  UNL1       -0.2754
      8 C          62.5060   88.1019   11.1098 C.ar    1  UNL1        0.1665
      9 N          62.9471   88.4764   12.4936 N.ar    1  UNL1       -0.2264
     10 C          61.6356   85.9755    7.9813 C.ar    1  UNL1        0.0657
     11 C          62.7798   85.1971    7.4028 C.ar    1  UNL1        0.0074
     12 C          62.5232   84.1499    6.3600 C.ar    1  UNL1        0.0209
     13 C          61.1224   83.8811    5.8958 C.ar    1  UNL1        0.1003
     14 N          59.9782   84.6596    6.4744 N.ar    1  UNL1       -0.2295
     15 C          60.2348   85.7068    7.5171 C.ar    1  UNL1        0.1282
     16 N          59.0906   86.4853    8.0958 N.pl3   1  UNL1       -0.3425
     17 H          58.1712   86.3089    7.7911 H       1  UNL1        0.1437
     18 H          59.2590   87.1726    8.7802 H       1  UNL1        0.1437
     19 C          64.8421   91.7568   15.8794 C.ar    1  UNL1        0.0503
     20 C          64.2738   91.0392   17.0677 C.ar    1  UNL1        0.0147
     21 C          63.2643   89.9471   16.8721 C.ar    1  UNL1        0.0013
     22 C          62.8232   89.5726   15.4882 C.ar    1  UNL1        0.0016
     23 C          63.3915   90.2902   14.2999 C.ar    1  UNL1        0.0189
     24 C          64.4010   91.3823   14.4955 C.ar    1  UNL1        0.0162
     25 C          68.2915   93.7194   15.8771 C.3     1  UNL1        0.0949
     26 C          67.2820   92.6273   15.6815 C.2     1  UNL1        0.2266
     27 O          67.7030   91.3137   15.0924 O.2     1  UNL1       -0.2748
     28 N          65.8516   92.8490   16.0750 N.am    1  UNL1       -0.2839
     29 H          65.5753   93.7112   16.4616 H       1  UNL1        0.1549
     30 C          62.7343   85.4407   11.0073 C.ar    1  UNL1        0.0667
     31 C          62.3108   85.1129   12.4085 C.ar    1  UNL1        0.0173
     32 C          62.6479   83.7766   13.0007 C.ar    1  UNL1       -0.0014
     33 C          63.4084   82.7680   12.1918 C.ar    1  UNL1       -0.0065
     34 C          63.8318   83.0958   10.7907 C.ar    1  UNL1       -0.0014
     35 C          63.4948   84.4321   10.1984 C.ar    1  UNL1        0.0173
     36 C          63.7454   81.4318   12.7840 C.3     1  UNL1        0.0922
     37 N          63.3301   81.1076   14.1884 N.3     1  UNL1       -0.3175
     38 H          63.8296   81.7136   14.8392 H       1  UNL1        0.1192
     39 H          63.5523   80.1332   14.3924 H       1  UNL1        0.1192
@<TRIPOS>BOND
     1    25    26    1
     2    26    27    2
     3    26    28   am
     4    28    19    1
     5    19    20   ar
     6    20    21   ar
     7    21    22   ar
     8    22    23   ar
     9    23     1    1
    10     1     2   ar
    11     2     3   ar
    12     3     4   ar
    13     4     5   ar
    14     5     6   ar
    15     6    10    1
    16    10    11   ar
    17    11    12   ar
    18    12    13   ar
    19    13    14   ar
    20    14    15   ar
    21    15    16    1
    22     6     7   ar
    23     7    30    1
    24    30    31   ar
    25    31    32   ar
    26    32    33   ar
    27    33    36    1
    28    36    37    1
    29    33    34   ar
    30    34    35   ar
    31     7     8   ar
    32     8     9   ar
    33    23    24   ar
    34    24    19   ar
    35     9     1   ar
    36     8     4   ar
    37    15    10   ar
    38    35    30   ar
    39    28    29    1
    40    16    17    1
    41    16    18    1
    42    37    38    1
    43    37    39    1
@<TRIPOS>MOLECULE
*****
 39 43 0 0 0
SMALL
GASTEIGER

@<TRIPOS>ATOM
      1 C          64.0013   87.4330   14.7664 C.ar    1  UNL1        0.0830
      2 C          64.3441   86.6612   16.0060 C.ar    1  UNL1        0.0208
      3 C          64.3025   85.1619   15.9914 C.ar    1  UNL1        0.0238
      4 C          63.9182   84.4344   14.7372 C.ar    1  UNL1        0.1173
      5 N          63.7903   82.9730   14.4237 N.ar    1  UNL1       -0.2248
      6 C          63.3685   82.8417   12.9902 C.ar    1  UNL1        0.1515
      7 N          63.2357   84.2219   12.4179 N.ar    1  UNL1       -0.2754
      8 C          63.5754   85.2062   13.4976 C.ar    1  UNL1        0.1665
      9 N          63.6170   86.7055   13.5121 N.ar    1  UNL1       -0.2264
     10 C          63.1226   81.5560   12.2577 C.ar    1  UNL1        0.0657
     11 C          63.3695   81.4755   10.7804 C.ar    1  UNL1        0.0074
     12 C          63.1236   80.1899   10.0479 C.ar    1  UNL1        0.0209
     13 C          62.6308   78.9847   10.7927 C.ar    1  UNL1        0.1003
     14 N          62.3839   79.0652   12.2700 N.ar    1  UNL1       -0.2295
     15 C          62.6298   80.3509   13.0025 C.ar    1  UNL1        0.1282
     16 N          62.3829   80.4315   14.4799 N.pl3   1  UNL1       -0.3425
     17 H          62.0594   79.6405   14.9688 H       1  UNL1        0.1437
     18 H          62.5443   81.2753   14.9607 H       1  UNL1        0.1437
     19 C          64.3928   91.1857   13.5358 C.ar    1  UNL1        0.0503
     20 C          64.1260   91.9311   14.8098 C.ar    1  UNL1        0.0147
     21 C          63.8176   91.1772   16.0694 C.ar    1  UNL1        0.0013
     22 C          63.7761   89.6778   16.0549 C.ar    1  UNL1        0.0016
     23 C          64.0429   88.9324   14.7809 C.ar    1  UNL1        0.0189
     24 C          64.3512   89.6863   13.5213 C.ar    1  UNL1        0.0162
     25 C          66.3869   93.2420   10.7889 C.3     1  UNL1        0.0949
     26 C          66.0786   92.4880   12.0485 C.2     1  UNL1        0.2266
     27 O          67.1477   92.2825   13.0803 O.2     1  UNL1       -0.2748
     28 N          64.7011   91.9396   12.2762 N.am    1  UNL1       -0.2839
     29 H          63.9994   92.0745   11.5989 H       1  UNL1        0.1549
     30 C          62.8338   84.5587   11.0125 C.ar    1  UNL1        0.0667
     31 C          63.6651   84.0799    9.8595 C.ar    1  UNL1        0.0173
     32 C          63.2631   84.4167    8.4541 C.ar    1  UNL1       -0.0014
     33 C          62.0298   85.2323    8.2018 C.ar    1  UNL1       -0.0065
     34 C          61.1985   85.7111    9.3549 C.ar    1  UNL1       -0.0014
     35 C          61.6004   85.3743   10.7602 C.ar    1  UNL1        0.0173
     36 C          61.6278   85.5691    6.7965 C.3     1  UNL1        0.0922
     37 N          61.2413   84.4761    5.8446 N.3     1  UNL1       -0.3175
     38 H          62.0529   83.8886    5.6539 H       1  UNL1        0.1192
     39 H          60.9066   84.8869    4.9731 H       1  UNL1        0.1192
@<TRIPOS>BOND
     1    25    26    1
     2    26    27    2
     3    26    28   am
     4    28    19    1
     5    19    20   ar
     6    20    21   ar
     7    21    22   ar
     8    22    23   ar
     9    23     1    1
    10     1     2   ar
    11     2     3   ar
    12     3     4   ar
    13     4     5   ar
    14     5     6   ar
    15     6    10    1
    16    10    11   ar
    17    11    12   ar
    18    12    13   ar
    19    13    14   ar
    20    14    15   ar
    21    15    16    1
    22     6     7   ar
    23     7    30    1
    24    30    31   ar
    25    31    32   ar
    26    32    33   ar
    27    33    36    1
    28    36    37    1
    29    33    34   ar
    30    34    35   ar
    31     7     8   ar
    32     8     9   ar
    33    23    24   ar
    34    24    19   ar
    35     9     1   ar
    36     8     4   ar
    37    15    10   ar
    38    35    30   ar
    39    28    29    1
    40    16    17    1
    41    16    18    1
    42    37    38    1
    43    37    39    1
@<TRIPOS>MOLECULE
*****
 39 43 0 0 0
SMALL
GASTEIGER

@<TRIPOS>ATOM
      1 C          62.6894   89.4779   11.5959 C.ar    1  UNL1        0.0830
      2 C          62.6622   88.6111   12.8197 C.ar    1  UNL1        0.0208
      3 C          63.6343   88.8577   13.9351 C.ar    1  UNL1        0.0238
      4 C          64.6337   89.9711   13.8266 C.ar    1  UNL1        0.1173
      5 N          65.7078   90.4500   14.7578 N.ar    1  UNL1       -0.2248
      6 C          66.3988   91.6127   14.1094 C.ar    1  UNL1        0.1515
      7 N          65.7518   91.8524   12.7775 N.ar    1  UNL1       -0.2754
      8 C          64.6609   90.8378   12.6028 C.ar    1  UNL1        0.1665
      9 N          63.6888   90.5912   11.4874 N.ar    1  UNL1       -0.2264
     10 C          67.5371   92.3979   14.6907 C.ar    1  UNL1        0.0657
     11 C          67.3065   93.2869   15.8766 C.ar    1  UNL1        0.0074
     12 C          68.4447   94.0721   16.4579 C.ar    1  UNL1        0.0209
     13 C          69.8135   93.9682   15.8533 C.ar    1  UNL1        0.1003
     14 N          70.0441   93.0792   14.6674 N.ar    1  UNL1       -0.2295
     15 C          68.9059   92.2940   14.0861 C.ar    1  UNL1        0.1282
     16 N          69.1364   91.4049   12.9001 N.pl3   1  UNL1       -0.3425
     17 H          70.0348   91.3367   12.5033 H       1  UNL1        0.1437
     18 H          68.3894   90.8896   12.5186 H       1  UNL1        0.1437
     19 C          60.7950   87.6966    8.5978 C.ar    1  UNL1        0.0503
     20 C          59.7731   88.7381    8.2495 C.ar    1  UNL1        0.0147
     21 C          59.7234   90.0261    9.0166 C.ar    1  UNL1        0.0013
     22 C          60.6955   90.2727   10.1321 C.ar    1  UNL1        0.0016
     23 C          61.7173   89.2313   10.4804 C.ar    1  UNL1        0.0189
     24 C          61.7670   87.9433    9.7132 C.ar    1  UNL1        0.0162
     25 C          62.1633   84.3217    7.0206 C.3     1  UNL1        0.0949
     26 C          62.1136   85.6097    7.7878 C.2     1  UNL1        0.2266
     27 O          63.3327   86.0989    8.5120 O.2     1  UNL1       -0.2748
     28 N          60.8447   86.4086    7.8306 N.am    1  UNL1       -0.2839
     29 H          60.0446   86.0876    7.3553 H       1  UNL1        0.1549
     30 C          66.1294   92.9194   11.7931 C.ar    1  UNL1        0.0667
     31 C          66.6535   92.5399   10.4399 C.ar    1  UNL1        0.0173
     32 C          67.0311   93.6069    9.4555 C.ar    1  UNL1       -0.0014
     33 C          66.8845   95.0534    9.8244 C.ar    1  UNL1       -0.0065
     34 C          66.3604   95.4329   11.1776 C.ar    1  UNL1       -0.0014
     35 C          65.9828   94.3659   12.1619 C.ar    1  UNL1        0.0173
     36 C          67.2621   96.1204    8.8400 C.3     1  UNL1        0.0922
     37 N          66.3252   96.4768    7.7241 N.3     1  UNL1       -0.3175
     38 H          66.2349   95.6833    7.0895 H       1  UNL1        0.1192
     39 H          66.6936   97.2797    7.2142 H       1  UNL1        0.1192
@<TRIPOS>BOND
     1    25    26    1
     2    26    27    2
     3    26    28   am
     4    28    19    1
     5    19    20   ar
     6    20    21   ar
     7    21    22   ar
     8    22    23   ar
     9    23     1    1
    10     1     2   ar
    11     2     3   ar
    12     3     4   ar
    13     4     5   ar
    14     5     6   ar
    15     6    10    1
    16    10    11   ar
    17    11    12   ar
    18    12    13   ar
    19    13    14   ar
    20    14    15   ar
    21    15    16    1
    22     6     7   ar
    23     7    30    1
    24    30    31   ar
    25    31    32   ar
    26    32    33   ar
    27    33    36    1
    28    36    37    1
    29    33    34   ar
    30    34    35   ar
    31     7     8   ar
    32     8     9   ar
    33    23    24   ar
    34    24    19   ar
    35     9     1   ar
    36     8     4   ar
    37    15    10   ar
    38    35    30   ar
    39    28    29    1
    40    16    17    1
    41    16    18    1
    42    37    38    1
    43    37    39    1
@<TRIPOS>MOLECULE
*****
 39 43 0 0 0
SMALL
GASTEIGER

@<TRIPOS>ATOM
      1 C          62.1591   89.8912    9.9183 C.ar    1  UNL1        0.0830
      2 C          62.7547   91.0270    9.1404 C.ar    1  UNL1        0.0208
      3 C          63.8095   91.8918    9.7646 C.ar    1  UNL1        0.0238
      4 C          64.2687   91.6207   11.1666 C.ar    1  UNL1        0.1173
      5 N          65.2841   92.2978   12.0388 N.ar    1  UNL1       -0.2248
      6 C          65.3160   91.5804   13.3557 C.ar    1  UNL1        0.1515
      7 N          64.3204   90.4600   13.2974 N.ar    1  UNL1       -0.2754
      8 C          63.6731   90.4849   11.9445 C.ar    1  UNL1        0.1665
      9 N          62.6183   89.6201   11.3203 N.ar    1  UNL1       -0.2264
     10 C          66.1901   91.9232   14.5255 C.ar    1  UNL1        0.0657
     11 C          65.5727   92.2483   15.8533 C.ar    1  UNL1        0.0074
     12 C          66.4468   92.5911   17.0230 C.ar    1  UNL1        0.0209
     13 C          67.9383   92.6087   16.8651 C.ar    1  UNL1        0.1003
     14 N          68.5558   92.2835   15.5373 N.ar    1  UNL1       -0.2295
     15 C          67.6817   91.9408   14.3676 C.ar    1  UNL1        0.1282
     16 N          68.2991   91.6156   13.0397 N.pl3   1  UNL1       -0.3425
     17 H          69.2781   91.6271   12.9360 H       1  UNL1        0.1437
     18 H          67.7254   91.3906   12.2719 H       1  UNL1        0.1437
     19 C          59.0583   88.7586    7.7156 C.ar    1  UNL1        0.0503
     20 C          58.9947   87.2967    8.0459 C.ar    1  UNL1        0.0147
     21 C          59.9860   86.6997    9.0003 C.ar    1  UNL1        0.0013
     22 C          61.0408   87.5646    9.6245 C.ar    1  UNL1        0.0016
     23 C          61.1043   89.0263    9.2942 C.ar    1  UNL1        0.0189
     24 C          60.1130   89.6233    8.3397 C.ar    1  UNL1        0.0162
     25 C          57.5266   90.9574    4.7883 C.3     1  UNL1        0.0949
     26 C          58.5179   90.3604    5.7427 C.2     1  UNL1        0.2266
     27 O          59.9599   90.7681    5.6787 O.2     1  UNL1       -0.2748
     28 N          58.0670   89.3556    6.7612 N.am    1  UNL1       -0.2839
     29 H          57.1205   89.0880    6.8032 H       1  UNL1        0.1549
     30 C          64.0240   89.4856   14.3987 C.ar    1  UNL1        0.0667
     31 C          63.3627   89.9573   15.6596 C.ar    1  UNL1        0.0173
     32 C          63.0663   88.9830   16.7609 C.ar    1  UNL1       -0.0014
     33 C          63.4313   87.5369   16.6013 C.ar    1  UNL1       -0.0065
     34 C          64.0927   87.0652   15.3403 C.ar    1  UNL1       -0.0014
     35 C          64.3890   88.0395   14.2390 C.ar    1  UNL1        0.0173
     36 C          63.1350   86.5625   17.7025 C.3     1  UNL1        0.0922
     37 N          62.0475   85.5439   17.5302 N.3     1  UNL1       -0.3175
     38 H          61.1452   86.0162   17.4728 H       1  UNL1        0.1192
     39 H          62.0481   84.9077   18.3275 H       1  UNL1        0.1192
@<TRIPOS>BOND
     1    25    26    1
     2    26    27    2
     3    26    28   am
     4    28    19    1
     5    19    20   ar
     6    20    21   ar
     7    21    22   ar
     8    22    23   ar
     9    23     1    1
    10     1     2   ar
    11     2     3   ar
    12     3     4   ar
    13     4     5   ar
    14     5     6   ar
    15     6    10    1
    16    10    11   ar
    17    11    12   ar
    18    12    13   ar
    19    13    14   ar
    20    14    15   ar
    21    15    16    1
    22     6     7   ar
    23     7    30    1
    24    30    31   ar
    25    31    32   ar
    26    32    33   ar
    27    33    36    1
    28    36    37    1
    29    33    34   ar
    30    34    35   ar
    31     7     8   ar
    32     8     9   ar
    33    23    24   ar
    34    24    19   ar
    35     9     1   ar
    36     8     4   ar
    37    15    10   ar
    38    35    30   ar
    39    28    29    1
    40    16    17    1
    41    16    18    1
    42    37    38    1
    43    37    39    1
@<TRIPOS>MOLECULE
*****
 39 43 0 0 0
SMALL
GASTEIGER

@<TRIPOS>ATOM
      1 C          62.3321   88.8401   11.0215 C.ar    1  UNL1        0.0830
      2 C          62.1166   88.0766   12.2945 C.ar    1  UNL1        0.0208
      3 C          62.9233   88.4098   13.5145 C.ar    1  UNL1        0.0238
      4 C          63.9454   89.5063   13.4614 C.ar    1  UNL1        0.1173
      5 N          64.8830   90.0554   14.4956 N.ar    1  UNL1       -0.2248
      6 C          65.6779   91.1582   13.8617 C.ar    1  UNL1        0.1515
      7 N          65.2316   91.2907   12.4358 N.ar    1  UNL1       -0.2754
      8 C          64.1609   90.2698   12.1884 C.ar    1  UNL1        0.1665
      9 N          63.3542   89.9367   10.9684 N.ar    1  UNL1       -0.2264
     10 C          66.7337   91.9837   14.5354 C.ar    1  UNL1        0.0657
     11 C          68.1143   92.0557   13.9535 C.ar    1  UNL1        0.0074
     12 C          69.1701   92.8811   14.6272 C.ar    1  UNL1        0.0209
     13 C          68.8453   93.6346   15.8829 C.ar    1  UNL1        0.1003
     14 N          67.4647   93.5626   16.4649 N.ar    1  UNL1       -0.2295
     15 C          66.4089   92.7372   15.7911 C.ar    1  UNL1        0.1282
     16 N          65.0282   92.6652   16.3731 N.pl3   1  UNL1       -0.3425
     17 H          64.8150   93.1597   17.1973 H       1  UNL1        0.1437
     18 H          64.3353   92.1234   15.9309 H       1  UNL1        0.1437
     19 C          59.8781   89.2298    7.9270 C.ar    1  UNL1        0.0503
     20 C          59.9122   87.8409    7.3614 C.ar    1  UNL1        0.0147
     21 C          60.7530   86.7851    8.0159 C.ar    1  UNL1        0.0013
     22 C          61.5596   87.1182    9.2359 C.ar    1  UNL1        0.0016
     23 C          61.5255   88.5070    9.8014 C.ar    1  UNL1        0.0189
     24 C          60.6847   89.5629    9.1469 C.ar    1  UNL1        0.0162
     25 C          58.5200   91.8027    5.2277 C.3     1  UNL1        0.0949
     26 C          59.3608   90.7469    5.8822 C.2     1  UNL1        0.2266
     27 O          60.5249   90.1523    5.1465 O.2     1  UNL1       -0.2748
     28 N          59.0374   90.2857    7.2725 N.am    1  UNL1       -0.2839
     29 H          58.2733   90.6759    7.7553 H       1  UNL1        0.1549
     30 C          65.7628   92.2719   11.4332 C.ar    1  UNL1        0.0667
     31 C          65.0222   93.5491   11.1686 C.ar    1  UNL1        0.0173
     32 C          65.5534   94.5303   10.1661 C.ar    1  UNL1       -0.0014
     33 C          66.8252   94.2342    9.4280 C.ar    1  UNL1       -0.0065
     34 C          67.5658   92.9570    9.6926 C.ar    1  UNL1       -0.0014
     35 C          67.0346   91.9758   10.6952 C.ar    1  UNL1        0.0173
     36 C          67.3564   95.2154    8.4255 C.3     1  UNL1        0.0922
     37 N          67.7880   96.5817    8.8692 N.3     1  UNL1       -0.3175
     38 H          66.9774   97.1021    9.2044 H       1  UNL1        0.1192
     39 H          68.2090   97.0772    8.0833 H       1  UNL1        0.1192
@<TRIPOS>BOND
     1    25    26    1
     2    26    27    2
     3    26    28   am
     4    28    19    1
     5    19    20   ar
     6    20    21   ar
     7    21    22   ar
     8    22    23   ar
     9    23     1    1
    10     1     2   ar
    11     2     3   ar
    12     3     4   ar
    13     4     5   ar
    14     5     6   ar
    15     6    10    1
    16    10    11   ar
    17    11    12   ar
    18    12    13   ar
    19    13    14   ar
    20    14    15   ar
    21    15    16    1
    22     6     7   ar
    23     7    30    1
    24    30    31   ar
    25    31    32   ar
    26    32    33   ar
    27    33    36    1
    28    36    37    1
    29    33    34   ar
    30    34    35   ar
    31     7     8   ar
    32     8     9   ar
    33    23    24   ar
    34    24    19   ar
    35     9     1   ar
    36     8     4   ar
    37    15    10   ar
    38    35    30   ar
    39    28    29    1
    40    16    17    1
    41    16    18    1
    42    37    38    1
    43    37    39    1
@<TRIPOS>MOLECULE
*****
 39 43 0 0 0
SMALL
GASTEIGER

@<TRIPOS>ATOM
      1 C          59.7237   88.9272    7.3849 C.ar    1  UNL1        0.0830
      2 C          59.1424   87.5449    7.3507 C.ar    1  UNL1        0.0208
      3 C          59.5675   86.5272    8.3673 C.ar    1  UNL1        0.0238
      4 C          60.5739   86.8918    9.4181 C.ar    1  UNL1        0.1173
      5 N          61.1802   86.1059   10.5428 N.ar    1  UNL1       -0.2248
      6 C          62.1363   87.0026   11.2721 C.ar    1  UNL1        0.1515
      7 N          62.1208   88.3426   10.5981 N.ar    1  UNL1       -0.2754
      8 C          61.1552   88.2741    9.4524 C.ar    1  UNL1        0.1665
      9 N          60.7301   89.2918    8.4357 N.ar    1  UNL1       -0.2264
     10 C          62.9628   86.6256   12.4658 C.ar    1  UNL1        0.0657
     11 C          63.5329   87.6939   13.3510 C.ar    1  UNL1        0.0074
     12 C          64.3593   87.3168   14.5446 C.ar    1  UNL1        0.0209
     13 C          64.6157   85.8714   14.8530 C.ar    1  UNL1        0.1003
     14 N          64.0455   84.8031   13.9678 N.ar    1  UNL1       -0.2295
     15 C          63.2191   85.1802   12.7742 C.ar    1  UNL1        0.1282
     16 N          62.6489   84.1118   11.8889 N.pl3   1  UNL1       -0.3425
     17 H          62.8171   83.1632   12.0913 H       1  UNL1        0.1437
     18 H          62.1065   84.3594   11.1055 H       1  UNL1        0.1437
     19 C          59.9057   91.6911    4.5428 C.ar    1  UNL1        0.0503
     20 C          58.4486   91.9805    4.3350 C.ar    1  UNL1        0.0147
     21 C          57.4165   91.2522    5.1439 C.ar    1  UNL1        0.0013
     22 C          57.8416   90.2344    6.1605 C.ar    1  UNL1        0.0016
     23 C          59.2987   89.9450    6.3683 C.ar    1  UNL1        0.0189
     24 C          60.3307   90.6734    5.5594 C.ar    1  UNL1        0.0162
     25 C          61.6092   93.7135    1.5833 C.3     1  UNL1        0.0949
     26 C          60.5771   92.9851    2.3922 C.2     1  UNL1        0.2266
     27 O          59.1844   92.8223    1.8594 O.2     1  UNL1       -0.2748
     28 N          60.9378   92.4195    3.7339 N.am    1  UNL1       -0.2839
     29 H          61.8519   92.5264    4.0835 H       1  UNL1        0.1549
     30 C          62.9290   89.5408   10.9995 C.ar    1  UNL1        0.0667
     31 C          63.2324   89.7902   12.4472 C.ar    1  UNL1        0.0173
     32 C          64.0407   90.9884   12.8485 C.ar    1  UNL1       -0.0014
     33 C          64.5456   91.9372   11.8022 C.ar    1  UNL1       -0.0065
     34 C          64.2422   91.6879   10.3546 C.ar    1  UNL1       -0.0014
     35 C          63.4339   90.4897    9.9532 C.ar    1  UNL1        0.0173
     36 C          65.3538   93.1354   12.2036 C.3     1  UNL1        0.0922
     37 N          66.8450   93.1224   12.0424 N.3     1  UNL1       -0.3175
     38 H          67.2487   92.4264   12.6693 H       1  UNL1        0.1192
     39 H          67.2197   94.0433   12.2703 H       1  UNL1        0.1192
@<TRIPOS>BOND
     1    25    26    1
     2    26    27    2
     3    26    28   am
     4    28    19    1
     5    19    20   ar
     6    20    21   ar
     7    21    22   ar
     8    22    23   ar
     9    23     1    1
    10     1     2   ar
    11     2     3   ar
    12     3     4   ar
    13     4     5   ar
    14     5     6   ar
    15     6    10    1
    16    10    11   ar
    17    11    12   ar
    18    12    13   ar
    19    13    14   ar
    20    14    15   ar
    21    15    16    1
    22     6     7   ar
    23     7    30    1
    24    30    31   ar
    25    31    32   ar
    26    32    33   ar
    27    33    36    1
    28    36    37    1
    29    33    34   ar
    30    34    35   ar
    31     7     8   ar
    32     8     9   ar
    33    23    24   ar
    34    24    19   ar
    35     9     1   ar
    36     8     4   ar
    37    15    10   ar
    38    35    30   ar
    39    28    29    1
    40    16    17    1
    41    16    18    1
    42    37    38    1
    43    37    39    1
@<TRIPOS>MOLECULE
*****
 39 43 0 0 0
SMALL
GASTEIGER

@<TRIPOS>ATOM
      1 C          62.9089   89.8594   12.6087 C.ar    1  UNL1        0.0830
      2 C          62.4461   90.9088   11.6421 C.ar    1  UNL1        0.0208
      3 C          61.9951   90.5151   10.2668 C.ar    1  UNL1        0.0238
      4 C          62.0069   89.0719    9.8581 C.ar    1  UNL1        0.1173
      5 N          61.6226   88.3875    8.5798 N.ar    1  UNL1       -0.2248
      6 C          61.8480   86.9151    8.7564 C.ar    1  UNL1        0.1515
      7 N          62.3715   86.6895   10.1439 N.ar    1  UNL1       -0.2754
      8 C          62.4697   88.0224   10.8248 C.ar    1  UNL1        0.1665
      9 N          62.9207   88.4162   12.2001 N.ar    1  UNL1       -0.2264
     10 C          61.5944   85.8545    7.7264 C.ar    1  UNL1        0.0657
     11 C          62.7456   85.1126    7.1146 C.ar    1  UNL1        0.0074
     12 C          62.4920   84.0520    6.0847 C.ar    1  UNL1        0.0209
     13 C          61.0872   83.7333    5.6665 C.ar    1  UNL1        0.1003
     14 N          59.9360   84.4752    6.2783 N.ar    1  UNL1       -0.2295
     15 C          60.1896   85.5358    7.3082 C.ar    1  UNL1        0.1282
     16 N          59.0383   86.2777    7.9200 N.pl3   1  UNL1       -0.3425
     17 H          58.1163   86.0686    7.6456 H       1  UNL1        0.1437
     18 H          59.2048   86.9738    8.5960 H       1  UNL1        0.1437
     19 C          63.4462   89.7968   16.5403 C.ar    1  UNL1        0.0503
     20 C          64.2620   91.0406   16.7348 C.ar    1  UNL1        0.0147
     21 C          64.6266   91.8906   15.5539 C.ar    1  UNL1        0.0013
     22 C          64.1756   91.4968   14.1785 C.ar    1  UNL1        0.0016
     23 C          63.3599   90.2531   13.9841 C.ar    1  UNL1        0.0189
     24 C          62.9952   89.4031   15.1650 C.ar    1  UNL1        0.0162
     25 C          62.6564   86.6045   18.7620 C.3     1  UNL1        0.0949
     26 C          63.0211   87.4545   17.5811 C.2     1  UNL1        0.2266
     27 O          63.3253   86.8123   16.2601 O.2     1  UNL1       -0.2748
     28 N          63.0815   88.9468   17.7212 N.am    1  UNL1       -0.2839
     29 H          62.8818   89.3683   18.5882 H       1  UNL1        0.1549
     30 C          62.7333   85.3637   10.7450 C.ar    1  UNL1        0.0667
     31 C          63.5325   84.3733    9.9511 C.ar    1  UNL1        0.0173
     32 C          63.8943   83.0475   10.5522 C.ar    1  UNL1       -0.0014
     33 C          63.4569   82.7120   11.9472 C.ar    1  UNL1       -0.0065
     34 C          62.6576   83.7024   12.7411 C.ar    1  UNL1       -0.0014
     35 C          62.2958   85.0282   12.1400 C.ar    1  UNL1        0.0173
     36 C          63.8187   81.3862   12.5483 C.3     1  UNL1        0.0922
     37 N          63.4857   81.0968   13.9819 N.3     1  UNL1       -0.3175
     38 H          64.0280   81.7126   14.5879 H       1  UNL1        0.1192
     39 H          63.7124   80.1252   14.1942 H       1  UNL1        0.1192
@<TRIPOS>BOND
     1    25    26    1
     2    26    27    2
     3    26    28   am
     4    28    19    1
     5    19    20   ar
     6    20    21   ar
     7    21    22   ar
     8    22    23   ar
     9    23     1    1
    10     1     2   ar
    11     2     3   ar
    12     3     4   ar
    13     4     5   ar
    14     5     6   ar
    15     6    10    1
    16    10    11   ar
    17    11    12   ar
    18    12    13   ar
    19    13    14   ar
    20    14    15   ar
    21    15    16    1
    22     6     7   ar
    23     7    30    1
    24    30    31   ar
    25    31    32   ar
    26    32    33   ar
    27    33    36    1
    28    36    37    1
    29    33    34   ar
    30    34    35   ar
    31     7     8   ar
    32     8     9   ar
    33    23    24   ar
    34    24    19   ar
    35     9     1   ar
    36     8     4   ar
    37    15    10   ar
    38    35    30   ar
    39    28    29    1
    40    16    17    1
    41    16    18    1
    42    37    38    1
    43    37    39    1
@<TRIPOS>MOLECULE
*****
 39 43 0 0 0
SMALL
GASTEIGER

@<TRIPOS>ATOM
      1 C          61.9594   89.5131    9.9760 C.ar    1  UNL1        0.0830
      2 C          62.4906   90.6296    9.1269 C.ar    1  UNL1        0.0208
      3 C          63.5253   91.5647    9.6791 C.ar    1  UNL1        0.0238
      4 C          64.0288   91.3832   11.0803 C.ar    1  UNL1        0.1173
      5 N          65.0377   92.1422   11.8905 N.ar    1  UNL1       -0.2248
      6 C          65.1299   91.4946   13.2404 C.ar    1  UNL1        0.1515
      7 N          64.1781   90.3355   13.2644 N.ar    1  UNL1       -0.2754
      8 C          63.4976   90.2667   11.9295 C.ar    1  UNL1        0.1665
      9 N          62.4629   89.3316   11.3773 N.ar    1  UNL1       -0.2264
     10 C          66.0180   91.9297   14.3682 C.ar    1  UNL1        0.0657
     11 C          65.4306   92.2133   15.7190 C.ar    1  UNL1        0.0074
     12 C          66.3187   92.6484   16.8467 C.ar    1  UNL1        0.0209
     13 C          67.7943   92.7999   16.6238 C.ar    1  UNL1        0.1003
     14 N          68.3817   92.5164   15.2731 N.ar    1  UNL1       -0.2295
     15 C          67.4936   92.0813   14.1453 C.ar    1  UNL1        0.1282
     16 N          68.0811   91.7977   12.7945 N.pl3   1  UNL1       -0.3425
     17 H          69.0495   91.8972   12.6482 H       1  UNL1        0.1437
     18 H          67.4981   91.5122   12.0543 H       1  UNL1        0.1437
     19 C          60.2634   86.6560    7.8055 C.ar    1  UNL1        0.0503
     20 C          58.8551   86.7076    8.3196 C.ar    1  UNL1        0.0147
     21 C          58.4817   87.6943    9.3859 C.ar    1  UNL1        0.0013
     22 C          59.5164   88.6295    9.9380 C.ar    1  UNL1        0.0016
     23 C          60.9246   88.5779    9.4239 C.ar    1  UNL1        0.0189
     24 C          61.2981   87.5912    8.3577 C.ar    1  UNL1        0.0162
     25 C          62.3216   83.9579    5.7478 C.3     1  UNL1        0.0949
     26 C          61.9482   84.9447    6.8141 C.2     1  UNL1        0.2266
     27 O          62.8859   85.2068    7.9551 O.2     1  UNL1       -0.2748
     28 N          60.6369   85.6693    6.7393 N.am    1  UNL1       -0.2839
     29 H          60.0214   85.4973    5.9904 H       1  UNL1        0.1549
     30 C          63.9473   89.4080   14.4205 C.ar    1  UNL1        0.0667
     31 C          63.2856   89.9144   15.6678 C.ar    1  UNL1        0.0173
     32 C          63.0548   88.9869   16.8239 C.ar    1  UNL1       -0.0014
     33 C          63.4857   87.5530   16.7327 C.ar    1  UNL1       -0.0065
     34 C          64.1473   87.0467   15.4854 C.ar    1  UNL1       -0.0014
     35 C          64.3781   87.9741   14.3293 C.ar    1  UNL1        0.0173
     36 C          63.2549   86.6255   17.8887 C.3     1  UNL1        0.0922
     37 N          62.0839   85.6882   17.8761 N.3     1  UNL1       -0.3175
     38 H          61.2177   86.2257   17.9128 H       1  UNL1        0.1192
     39 H          62.1347   85.0696   18.6854 H       1  UNL1        0.1192
@<TRIPOS>BOND
     1    25    26    1
     2    26    27    2
     3    26    28   am
     4    28    19    1
     5    19    20   ar
     6    20    21   ar
     7    21    22   ar
     8    22    23   ar
     9    23     1    1
    10     1     2   ar
    11     2     3   ar
    12     3     4   ar
    13     4     5   ar
    14     5     6   ar
    15     6    10    1
    16    10    11   ar
    17    11    12   ar
    18    12    13   ar
    19    13    14   ar
    20    14    15   ar
    21    15    16    1
    22     6     7   ar
    23     7    30    1
    24    30    31   ar
    25    31    32   ar
    26    32    33   ar
    27    33    36    1
    28    36    37    1
    29    33    34   ar
    30    34    35   ar
    31     7     8   ar
    32     8     9   ar
    33    23    24   ar
    34    24    19   ar
    35     9     1   ar
    36     8     4   ar
    37    15    10   ar
    38    35    30   ar
    39    28    29    1
    40    16    17    1
    41    16    18    1
    42    37    38    1
    43    37    39    1
