@<TRIPOS>MOLECULE
*****
 31 35 0 0 0
SMALL
GASTEIGER

@<TRIPOS>ATOM
      1 N          63.8287   84.9305   15.7226 N.3     1  UNL1       -0.2684
      2 C          63.0077   85.1122   16.9648 C.3     1  UNL1        0.0725
      3 C          62.8344   86.5843   17.1945 C.3     1  UNL1        0.0204
      4 C          63.5481   87.3123   16.0944 C.3     1  UNL1        0.0359
      5 C          62.9336   88.3345   17.0040 C.3     1  UNL1        0.0244
      6 C          63.2676   89.6943   16.4660 C.3     1  UNL1        0.0909
      7 N          64.0886   89.5125   15.2239 N.pl3   1  UNL1       -0.3074
      8 C          64.2620   88.0404   14.9942 C.3     1  UNL1        0.0921
      9 C          64.1627   86.2902   15.1847 C.3     1  UNL1        0.0741
     10 C          64.6395   90.6102   14.3626 C.ar    1  UNL1        0.0504
     11 C          65.6734   91.5475   14.9124 C.ar    1  UNL1        0.0293
     12 C          66.2243   92.6452   14.0511 C.ar    1  UNL1        0.0606
     13 C          67.2583   93.5825   14.6009 C.3     1  UNL1        0.0521
     14 N          65.7412   92.8055   12.6402 N.ar    1  UNL1       -0.2496
     15 C          64.7072   91.8681   12.0904 C.ar    1  UNL1        0.0821
     16 C          64.2241   92.0284   10.6794 C.ar    1  UNL1        0.0191
     17 C          63.1901   91.0911   10.1297 C.ar    1  UNL1        0.0015
     18 C          62.6392   89.9934   10.9909 C.ar    1  UNL1        0.0001
     19 C          63.1223   89.8331   12.4019 C.ar    1  UNL1        0.0027
     20 C          64.1563   90.7705   12.9516 C.ar    1  UNL1        0.0310
     21 C          64.2429   83.6191   15.1236 C.3     1  UNL1        0.1074
     22 C          63.4932   83.2374   11.3346 C.ar    1  UNL1        0.1653
     23 N          62.6795   82.1141   11.9055 N.ar    1  UNL1       -0.2227
     24 C          62.8614   82.1203   13.3945 C.ar    1  UNL1        0.1044
     25 C          63.7874   83.2475   13.7437 C.ar    1  UNL1        0.0451
     26 S          64.1778   83.9379   12.4706 S.2     1  UNL1       -0.0543
     27 C          63.0269   85.1845    7.9079 C.3     1  UNL1        0.0950
     28 C          62.9172   84.8248    9.3600 C.2     1  UNL1        0.2280
     29 O          62.1220   85.6927   10.2897 O.2     1  UNL1       -0.2747
     30 N          63.6028   83.5971    9.8824 N.am    1  UNL1       -0.2641
     31 H          64.1248   83.0275    9.2722 H       1  UNL1        0.1567
@<TRIPOS>BOND
     1    27    28    1
     2    28    29    2
     3    28    30   am
     4    30    22    1
     5    22    23   ar
     6    23    24   ar
     7    24    25   ar
     8    25    21    1
     9    21     1    1
    10     1     2    1
    11     2     3    1
    12     3     4    1
    13     4     5    1
    14     5     6    1
    15     6     7    1
    16     7    10    1
    17    10    11   ar
    18    11    12   ar
    19    12    13    1
    20    12    14   ar
    21    14    15   ar
    22    15    16   ar
    23    16    17   ar
    24    17    18   ar
    25    18    19   ar
    26    19    20   ar
    27     7     8    1
    28     4     9    1
    29    25    26   ar
    30    26    22   ar
    31     9     1    1
    32     8     4    1
    33    20    10   ar
    34    20    15   ar
    35    30    31    1
@<TRIPOS>MOLECULE
*****
 31 35 0 0 0
SMALL
GASTEIGER

@<TRIPOS>ATOM
      1 N          64.0366   85.0247   15.6913 N.3     1  UNL1       -0.2684
      2 C          63.1365   85.1791   16.8813 C.3     1  UNL1        0.0725
      3 C          62.8847   86.6437   17.0850 C.3     1  UNL1        0.0204
      4 C          63.6291   87.3944   16.0210 C.3     1  UNL1        0.0359
      5 C          62.9171   88.3950   16.8823 C.3     1  UNL1        0.0244
      6 C          63.2216   89.7642   16.3506 C.3     1  UNL1        0.0909
      7 N          64.1216   89.6098   15.1606 N.pl3   1  UNL1       -0.3074
      8 C          64.3735   88.1452   14.9569 C.3     1  UNL1        0.0921
      9 C          64.3410   86.3938   15.1596 C.3     1  UNL1        0.0741
     10 C          64.6731   90.7243   14.3217 C.ar    1  UNL1        0.0504
     11 C          65.6921   91.6626   14.8970 C.ar    1  UNL1        0.0293
     12 C          66.2436   92.7771   14.0580 C.ar    1  UNL1        0.0606
     13 C          67.2627   93.7154   14.6334 C.3     1  UNL1        0.0521
     14 N          65.7759   92.9533   12.6438 N.ar    1  UNL1       -0.2496
     15 C          64.7567   92.0150   12.0684 C.ar    1  UNL1        0.0821
     16 C          64.2891   92.1912   10.6541 C.ar    1  UNL1        0.0191
     17 C          63.2700   91.2529   10.0788 C.ar    1  UNL1        0.0015
     18 C          62.7186   90.1384   10.9178 C.ar    1  UNL1        0.0001
     19 C          63.1862   89.9622   12.3320 C.ar    1  UNL1        0.0027
     20 C          64.2053   90.9005   12.9073 C.ar    1  UNL1        0.0310
     21 C          64.5433   83.7286   15.1314 C.3     1  UNL1        0.1074
     22 C          62.6950   81.0314   13.0402 C.ar    1  UNL1        0.1653
     23 N          61.5679   81.5843   13.8610 N.ar    1  UNL1       -0.2227
     24 C          62.1231   82.6620   14.7444 C.ar    1  UNL1        0.1044
     25 C          63.5933   82.7751   14.4694 C.ar    1  UNL1        0.0451
     26 S          63.9468   81.7673   13.4161 S.2     1  UNL1       -0.0543
     27 C          62.8464   79.1057    9.5733 C.3     1  UNL1        0.0950
     28 C          62.9524   80.2021   10.5914 C.2     1  UNL1        0.2280
     29 O          63.4220   81.5658   10.1790 O.2     1  UNL1       -0.2747
     30 N          62.5889   79.9349   12.0220 N.am    1  UNL1       -0.2641
     31 H          62.2807   79.0399   12.2927 H       1  UNL1        0.1567
@<TRIPOS>BOND
     1    27    28    1
     2    28    29    2
     3    28    30   am
     4    30    22    1
     5    22    23   ar
     6    23    24   ar
     7    24    25   ar
     8    25    21    1
     9    21     1    1
    10     1     2    1
    11     2     3    1
    12     3     4    1
    13     4     5    1
    14     5     6    1
    15     6     7    1
    16     7    10    1
    17    10    11   ar
    18    11    12   ar
    19    12    13    1
    20    12    14   ar
    21    14    15   ar
    22    15    16   ar
    23    16    17   ar
    24    17    18   ar
    25    18    19   ar
    26    19    20   ar
    27     7     8    1
    28     4     9    1
    29    25    26   ar
    30    26    22   ar
    31     9     1    1
    32     8     4    1
    33    20    10   ar
    34    20    15   ar
    35    30    31    1
@<TRIPOS>MOLECULE
*****
 31 35 0 0 0
SMALL
GASTEIGER

@<TRIPOS>ATOM
      1 N          63.7733   85.0884   15.8576 N.3     1  UNL1       -0.2684
      2 C          63.1612   85.4018   17.1907 C.3     1  UNL1        0.0725
      3 C          63.0127   86.8909   17.2939 C.3     1  UNL1        0.0204
      4 C          63.5330   87.4977   16.0247 C.3     1  UNL1        0.0359
      5 C          63.0630   88.6117   16.9124 C.3     1  UNL1        0.0244
      6 C          63.2928   89.9070   16.1918 C.3     1  UNL1        0.0909
      7 N          63.9048   89.5936   14.8587 N.pl3   1  UNL1       -0.3074
      8 C          64.0533   88.1045   14.7554 C.3     1  UNL1        0.0921
      9 C          64.0030   86.3836   15.1370 C.3     1  UNL1        0.0741
     10 C          64.2992   90.5936   13.8125 C.ar    1  UNL1        0.0504
     11 C          63.6752   90.5388   12.4496 C.ar    1  UNL1        0.0293
     12 C          64.0696   91.5389   11.4035 C.ar    1  UNL1        0.0606
     13 C          63.4455   91.4841   10.0405 C.3     1  UNL1        0.0521
     14 N          65.0879   92.5937   11.7202 N.ar    1  UNL1       -0.2496
     15 C          65.7119   92.6485   13.0832 C.ar    1  UNL1        0.0821
     16 C          66.7303   93.7032   13.4000 C.ar    1  UNL1        0.0191
     17 C          67.3542   93.7580   14.7629 C.ar    1  UNL1        0.0015
     18 C          66.9599   92.7579   15.8091 C.ar    1  UNL1        0.0001
     19 C          65.9416   91.7032   15.4923 C.ar    1  UNL1        0.0027
     20 C          65.3176   91.6484   14.1294 C.ar    1  UNL1        0.0310
     21 C          64.0984   83.7198   15.3366 C.3     1  UNL1        0.1074
     22 C          63.4786   83.3037   11.5278 C.ar    1  UNL1        0.1653
     23 N          62.6721   82.1653   12.0786 N.ar    1  UNL1       -0.2227
     24 C          62.8062   82.1826   13.5726 C.ar    1  UNL1        0.1044
     25 C          63.6954   83.3317   13.9449 C.ar    1  UNL1        0.0451
     26 S          64.1110   84.0246   12.6811 S.2     1  UNL1       -0.0543
     27 C          63.0332   85.1901    8.0646 C.3     1  UNL1        0.0950
     28 C          62.8852   84.8349    9.5144 C.2     1  UNL1        0.2280
     29 O          61.9959   85.6557   10.4007 O.2     1  UNL1       -0.2747
     30 N          63.6266   83.6589   10.0779 N.am    1  UNL1       -0.2641
     31 H          64.2102   83.1203    9.4962 H       1  UNL1        0.1567
@<TRIPOS>BOND
     1    27    28    1
     2    28    29    2
     3    28    30   am
     4    30    22    1
     5    22    23   ar
     6    23    24   ar
     7    24    25   ar
     8    25    21    1
     9    21     1    1
    10     1     2    1
    11     2     3    1
    12     3     4    1
    13     4     5    1
    14     5     6    1
    15     6     7    1
    16     7    10    1
    17    10    11   ar
    18    11    12   ar
    19    12    13    1
    20    12    14   ar
    21    14    15   ar
    22    15    16   ar
    23    16    17   ar
    24    17    18   ar
    25    18    19   ar
    26    19    20   ar
    27     7     8    1
    28     4     9    1
    29    25    26   ar
    30    26    22   ar
    31     9     1    1
    32     8     4    1
    33    20    10   ar
    34    20    15   ar
    35    30    31    1
@<TRIPOS>MOLECULE
*****
 31 35 0 0 0
SMALL
GASTEIGER

@<TRIPOS>ATOM
      1 N          64.1134   85.0712   15.7325 N.3     1  UNL1       -0.2684
      2 C          63.4037   85.3365   17.0271 C.3     1  UNL1        0.0725
      3 C          63.1241   86.8079   17.1094 C.3     1  UNL1        0.0204
      4 C          63.6609   87.4519   15.8657 C.3     1  UNL1        0.0359
      5 C          63.0495   88.5253   16.7167 C.3     1  UNL1        0.0244
      6 C          63.2085   89.8327   15.9989 C.3     1  UNL1        0.0909
      7 N          63.9181   89.5675   14.7043 N.pl3   1  UNL1       -0.3074
      8 C          64.1977   88.0961   14.6220 C.3     1  UNL1        0.0921
      9 C          64.2723   86.3786   15.0148 C.3     1  UNL1        0.0741
     10 C          64.2839   90.5935   13.6730 C.ar    1  UNL1        0.0504
     11 C          63.6567   90.5449   12.3113 C.ar    1  UNL1        0.0293
     12 C          64.0225   91.5709   11.2801 C.ar    1  UNL1        0.0606
     13 C          63.3953   91.5223    9.9183 C.3     1  UNL1        0.0521
     14 N          65.0155   92.6455   11.6105 N.ar    1  UNL1       -0.2496
     15 C          65.6427   92.6942   12.9723 C.ar    1  UNL1        0.0821
     16 C          66.6357   93.7688   13.3027 C.ar    1  UNL1        0.0191
     17 C          67.2628   93.8174   14.6644 C.ar    1  UNL1        0.0015
     18 C          66.8970   92.7913   15.6957 C.ar    1  UNL1        0.0001
     19 C          65.9041   91.7167   15.3652 C.ar    1  UNL1        0.0027
     20 C          65.2769   91.6682   14.0035 C.ar    1  UNL1        0.0310
     21 C          64.5818   83.7333   15.2419 C.3     1  UNL1        0.1074
     22 C          62.7254   81.0974   13.0808 C.ar    1  UNL1        0.1653
     23 N          61.5837   81.7059   13.8398 N.ar    1  UNL1       -0.2227
     24 C          62.1401   82.7674   14.7418 C.ar    1  UNL1        0.1044
     25 C          63.6257   82.8149   14.5402 C.ar    1  UNL1        0.0451
     26 S          63.9875   81.7828   13.5136 S.2     1  UNL1       -0.0543
     27 C          62.8550   79.1665    9.6160 C.3     1  UNL1        0.0950
     28 C          62.9574   80.2671   10.6299 C.2     1  UNL1        0.2280
     29 O          63.3942   81.6384   10.2068 O.2     1  UNL1       -0.2747
     30 N          62.6230   79.9966   12.0669 N.am    1  UNL1       -0.2641
     31 H          62.3363   79.0967   12.3446 H       1  UNL1        0.1567
@<TRIPOS>BOND
     1    27    28    1
     2    28    29    2
     3    28    30   am
     4    30    22    1
     5    22    23   ar
     6    23    24   ar
     7    24    25   ar
     8    25    21    1
     9    21     1    1
    10     1     2    1
    11     2     3    1
    12     3     4    1
    13     4     5    1
    14     5     6    1
    15     6     7    1
    16     7    10    1
    17    10    11   ar
    18    11    12   ar
    19    12    13    1
    20    12    14   ar
    21    14    15   ar
    22    15    16   ar
    23    16    17   ar
    24    17    18   ar
    25    18    19   ar
    26    19    20   ar
    27     7     8    1
    28     4     9    1
    29    25    26   ar
    30    26    22   ar
    31     9     1    1
    32     8     4    1
    33    20    10   ar
    34    20    15   ar
    35    30    31    1
@<TRIPOS>MOLECULE
*****
 31 35 0 0 0
SMALL
GASTEIGER

@<TRIPOS>ATOM
      1 N          62.0364   85.6926   10.9970 N.3     1  UNL1       -0.2684
      2 C          60.9310   85.9858   10.0264 C.3     1  UNL1        0.0725
      3 C          60.9094   87.4655    9.7818 C.3     1  UNL1        0.0204
      4 C          62.0013   88.0868   10.6012 C.3     1  UNL1        0.0359
      5 C          61.3048   89.1826    9.8501 C.3     1  UNL1        0.0244
      6 C          61.9663   90.4811   10.2054 C.3     1  UNL1        0.0909
      7 N          63.0717   90.1879   11.1760 N.pl3   1  UNL1       -0.3074
      8 C          63.0933   88.7081   11.4206 C.3     1  UNL1        0.0921
      9 C          62.6978   86.9910   11.3522 C.3     1  UNL1        0.0741
     10 C          63.9936   91.1972   11.7936 C.ar    1  UNL1        0.0504
     11 C          64.7396   92.1636   10.9222 C.ar    1  UNL1        0.0293
     12 C          65.6615   93.1729   11.5398 C.ar    1  UNL1        0.0606
     13 C          66.4076   94.1393   10.6683 C.3     1  UNL1        0.0521
     14 N          65.8373   93.2158   13.0288 N.ar    1  UNL1       -0.2496
     15 C          65.0912   92.2494   13.9003 C.ar    1  UNL1        0.0821
     16 C          65.2671   92.2923   15.3893 C.ar    1  UNL1        0.0191
     17 C          64.5210   91.3259   16.2607 C.ar    1  UNL1        0.0015
     18 C          63.5991   90.3166   15.6432 C.ar    1  UNL1        0.0001
     19 C          63.4233   90.2737   14.1541 C.ar    1  UNL1        0.0027
     20 C          64.1694   91.2401   13.2827 C.ar    1  UNL1        0.0310
     21 C          62.4139   84.3385   11.5204 C.3     1  UNL1        0.1074
     22 C          63.2326   84.6042   15.3051 C.ar    1  UNL1        0.1653
     23 N          63.0413   83.1242   15.1533 N.ar    1  UNL1       -0.2227
     24 C          62.7113   82.8445   13.7170 C.ar    1  UNL1        0.1044
     25 C          62.6987   84.1516   12.9812 C.ar    1  UNL1        0.0451
     26 S          63.0209   85.2391   13.9628 S.2     1  UNL1       -0.0543
     27 C          62.8543   86.7850   18.5992 C.3     1  UNL1        0.0950
     28 C          62.5114   86.0663   17.3281 C.2     1  UNL1        0.2280
     29 O          61.1044   86.0908   16.8086 O.2     1  UNL1       -0.2747
     30 N          63.5756   85.3229   16.5763 N.am    1  UNL1       -0.2641
     31 H          64.4990   85.3068   16.9172 H       1  UNL1        0.1567
@<TRIPOS>BOND
     1    27    28    1
     2    28    29    2
     3    28    30   am
     4    30    22    1
     5    22    23   ar
     6    23    24   ar
     7    24    25   ar
     8    25    21    1
     9    21     1    1
    10     1     2    1
    11     2     3    1
    12     3     4    1
    13     4     5    1
    14     5     6    1
    15     6     7    1
    16     7    10    1
    17    10    11   ar
    18    11    12   ar
    19    12    13    1
    20    12    14   ar
    21    14    15   ar
    22    15    16   ar
    23    16    17   ar
    24    17    18   ar
    25    18    19   ar
    26    19    20   ar
    27     7     8    1
    28     4     9    1
    29    25    26   ar
    30    26    22   ar
    31     9     1    1
    32     8     4    1
    33    20    10   ar
    34    20    15   ar
    35    30    31    1
@<TRIPOS>MOLECULE
*****
 31 35 0 0 0
SMALL
GASTEIGER

@<TRIPOS>ATOM
      1 N          64.0258   83.4197   13.4109 N.3     1  UNL1       -0.2684
      2 C          64.6320   82.4079   12.4842 C.3     1  UNL1        0.0725
      3 C          64.3061   82.8140   11.0775 C.3     1  UNL1        0.0204
      4 C          63.4986   84.0767   11.1348 C.3     1  UNL1        0.0359
      5 C          63.6719   83.7024    9.6927 C.3     1  UNL1        0.0244
      6 C          62.9714   84.7338    8.8587 C.3     1  UNL1        0.0909
      7 N          62.3652   85.7456    9.7854 N.pl3   1  UNL1       -0.3074
      8 C          62.6911   85.3395   11.1921 C.3     1  UNL1        0.0921
      9 C          63.3253   84.4510   12.5770 C.3     1  UNL1        0.0741
     10 C          61.5724   86.9517    9.3771 C.ar    1  UNL1        0.0504
     11 C          60.5403   86.8396    8.2944 C.ar    1  UNL1        0.0293
     12 C          59.7475   88.0457    7.8861 C.ar    1  UNL1        0.0606
     13 C          58.7154   87.9334    6.8034 C.3     1  UNL1        0.0521
     14 N          59.9868   89.3640    8.5605 N.ar    1  UNL1       -0.2496
     15 C          61.0189   89.4762    9.6432 C.ar    1  UNL1        0.0821
     16 C          61.2581   90.7945   10.3176 C.ar    1  UNL1        0.0191
     17 C          62.2902   90.9067   11.4002 C.ar    1  UNL1        0.0015
     18 C          63.0830   89.7005   11.8085 C.ar    1  UNL1        0.0001
     19 C          62.8438   88.3823   11.1342 C.ar    1  UNL1        0.0027
     20 C          61.8117   88.2701   10.0515 C.ar    1  UNL1        0.0310
     21 C          64.1060   83.4029   14.9087 C.3     1  UNL1        0.1074
     22 C          63.0357   86.6273   16.7855 C.ar    1  UNL1        0.1653
     23 N          61.8791   85.7203   17.0850 N.ar    1  UNL1       -0.2227
     24 C          62.1393   84.4020   16.4183 C.ar    1  UNL1        0.1044
     25 C          63.4566   84.4943   15.7069 C.ar    1  UNL1        0.0451
     26 S          64.0106   85.8696   15.9339 S.2     1  UNL1       -0.0543
     27 C          63.5025   90.5680   16.7267 C.3     1  UNL1        0.0950
     28 C          63.3481   89.1519   16.2570 C.2     1  UNL1        0.2280
     29 O          63.3516   88.8440   14.7889 O.2     1  UNL1       -0.2747
     30 N          63.1901   88.0435   17.2553 N.am    1  UNL1       -0.2641
     31 H          63.1878   88.2455   18.2189 H       1  UNL1        0.1567
@<TRIPOS>BOND
     1    27    28    1
     2    28    29    2
     3    28    30   am
     4    30    22    1
     5    22    23   ar
     6    23    24   ar
     7    24    25   ar
     8    25    21    1
     9    21     1    1
    10     1     2    1
    11     2     3    1
    12     3     4    1
    13     4     5    1
    14     5     6    1
    15     6     7    1
    16     7    10    1
    17    10    11   ar
    18    11    12   ar
    19    12    13    1
    20    12    14   ar
    21    14    15   ar
    22    15    16   ar
    23    16    17   ar
    24    17    18   ar
    25    18    19   ar
    26    19    20   ar
    27     7     8    1
    28     4     9    1
    29    25    26   ar
    30    26    22   ar
    31     9     1    1
    32     8     4    1
    33    20    10   ar
    34    20    15   ar
    35    30    31    1
@<TRIPOS>MOLECULE
*****
 31 35 0 0 0
SMALL
GASTEIGER

@<TRIPOS>ATOM
      1 N          61.8856   86.2653    9.0697 N.3     1  UNL1       -0.2684
      2 C          60.6928   86.8913    8.4098 C.3     1  UNL1        0.0725
      3 C          60.5022   88.2581    8.9976 C.3     1  UNL1        0.0204
      4 C          61.5770   88.4768   10.0207 C.3     1  UNL1        0.0359
      5 C          60.7220   89.7084    9.9761 C.3     1  UNL1        0.0244
      6 C          61.2685   90.6883   10.9717 C.3     1  UNL1        0.0909
      7 N          62.4613   90.0623   11.6316 N.pl3   1  UNL1       -0.3074
      8 C          62.6519   88.6955   11.0438 C.3     1  UNL1        0.0921
      9 C          62.4320   87.2451   10.0652 C.3     1  UNL1        0.0741
     10 C          63.3137   90.6924   12.6929 C.ar    1  UNL1        0.0504
     11 C          63.0962   90.3428   14.1352 C.ar    1  UNL1        0.0293
     12 C          63.9486   90.9729   15.1965 C.ar    1  UNL1        0.0606
     13 C          63.7310   90.6232   16.6389 C.3     1  UNL1        0.0521
     14 N          65.0185   91.9526   14.8155 N.ar    1  UNL1       -0.2496
     15 C          65.2361   92.3023   13.3731 C.ar    1  UNL1        0.0821
     16 C          66.3060   93.2821   12.9920 C.ar    1  UNL1        0.0191
     17 C          66.5236   93.6317   11.5497 C.ar    1  UNL1        0.0015
     18 C          65.6712   93.0016   10.4884 C.ar    1  UNL1        0.0001
     19 C          64.6012   92.0218   10.8694 C.ar    1  UNL1        0.0027
     20 C          64.3837   91.6722   12.3118 C.ar    1  UNL1        0.0310
     21 C          62.4353   84.8991    8.7841 C.3     1  UNL1        0.1074
     22 C          63.7265   83.2416   12.0475 C.ar    1  UNL1        0.1653
     23 N          64.6440   82.6312   11.0299 N.ar    1  UNL1       -0.2227
     24 C          64.2720   83.1778    9.6835 C.ar    1  UNL1        0.1044
     25 C          63.1246   84.1260    9.8690 C.ar    1  UNL1        0.0451
     26 S          62.7875   84.1654   11.3301 S.2     1  UNL1       -0.0543
     27 C          63.6438   83.8467   15.9689 C.3     1  UNL1        0.0950
     28 C          63.6254   84.1133   14.4930 C.2     1  UNL1        0.2280
     29 O          63.4874   85.5185   13.9863 O.2     1  UNL1       -0.2747
     30 N          63.7450   82.9749   13.5236 N.am    1  UNL1       -0.2641
     31 H          63.8355   82.0527   13.8561 H       1  UNL1        0.1567
@<TRIPOS>BOND
     1    27    28    1
     2    28    29    2
     3    28    30   am
     4    30    22    1
     5    22    23   ar
     6    23    24   ar
     7    24    25   ar
     8    25    21    1
     9    21     1    1
    10     1     2    1
    11     2     3    1
    12     3     4    1
    13     4     5    1
    14     5     6    1
    15     6     7    1
    16     7    10    1
    17    10    11   ar
    18    11    12   ar
    19    12    13    1
    20    12    14   ar
    21    14    15   ar
    22    15    16   ar
    23    16    17   ar
    24    17    18   ar
    25    18    19   ar
    26    19    20   ar
    27     7     8    1
    28     4     9    1
    29    25    26   ar
    30    26    22   ar
    31     9     1    1
    32     8     4    1
    33    20    10   ar
    34    20    15   ar
    35    30    31    1
@<TRIPOS>MOLECULE
*****
 31 35 0 0 0
SMALL
GASTEIGER

@<TRIPOS>ATOM
      1 N          62.9247   90.2482   11.8164 N.3     1  UNL1       -0.2684
      2 C          62.1208   90.5369   10.5834 C.3     1  UNL1        0.0725
      3 C          61.7379   89.2262    9.9624 C.3     1  UNL1        0.0204
      4 C          62.3051   88.1277   10.8116 C.3     1  UNL1        0.0359
      5 C          61.5716   87.4960    9.6657 C.3     1  UNL1        0.0244
      6 C          61.6855   86.0070    9.8068 C.3     1  UNL1        0.0909
      7 N          62.4894   85.7184   11.0398 N.pl3   1  UNL1       -0.3074
      8 C          62.8723   87.0290   11.6608 C.3     1  UNL1        0.0921
      9 C          63.0386   88.7593   11.9575 C.3     1  UNL1        0.0741
     10 C          62.8475   84.3580   11.5605 C.ar    1  UNL1        0.0504
     11 C          62.8058   83.1699   10.6457 C.ar    1  UNL1        0.0293
     12 C          63.1639   81.8095   11.1663 C.ar    1  UNL1        0.0606
     13 C          63.1221   80.6215   10.2515 C.3     1  UNL1        0.0521
     14 N          63.5637   81.6371   12.6017 N.ar    1  UNL1       -0.2496
     15 C          63.6055   82.8252   13.5165 C.ar    1  UNL1        0.0821
     16 C          64.0054   82.6528   14.9519 C.ar    1  UNL1        0.0191
     17 C          64.0472   83.8409   15.8667 C.ar    1  UNL1        0.0015
     18 C          63.6891   85.2013   15.3460 C.ar    1  UNL1        0.0001
     19 C          63.2892   85.3736   13.9107 C.ar    1  UNL1        0.0027
     20 C          63.2474   84.1856   12.9959 C.ar    1  UNL1        0.0310
     21 C          63.5117   91.2693   12.7453 C.3     1  UNL1        0.1074
     22 C          66.5506   93.1062   11.1783 C.ar    1  UNL1        0.1653
     23 N          67.0595   92.8329   12.5626 N.ar    1  UNL1       -0.2227
     24 C          65.9830   92.1115   13.3181 C.ar    1  UNL1        0.1044
     25 C          64.8089   91.9390   12.4007 C.ar    1  UNL1        0.0451
     26 S          65.1597   92.5538   11.0782 S.2     1  UNL1       -0.0543
     27 C          67.7006   95.9238    8.6310 C.3     1  UNL1        0.0950
     28 C          66.9503   95.2214    9.7234 C.2     1  UNL1        0.2280
     29 O          65.8491   95.9316   10.4536 O.2     1  UNL1       -0.2747
     30 N          67.3010   93.8087   10.0858 N.am    1  UNL1       -0.2641
     31 H          68.0238   93.3425    9.6066 H       1  UNL1        0.1567
@<TRIPOS>BOND
     1    27    28    1
     2    28    29    2
     3    28    30   am
     4    30    22    1
     5    22    23   ar
     6    23    24   ar
     7    24    25   ar
     8    25    21    1
     9    21     1    1
    10     1     2    1
    11     2     3    1
    12     3     4    1
    13     4     5    1
    14     5     6    1
    15     6     7    1
    16     7    10    1
    17    10    11   ar
    18    11    12   ar
    19    12    13    1
    20    12    14   ar
    21    14    15   ar
    22    15    16   ar
    23    16    17   ar
    24    17    18   ar
    25    18    19   ar
    26    19    20   ar
    27     7     8    1
    28     4     9    1
    29    25    26   ar
    30    26    22   ar
    31     9     1    1
    32     8     4    1
    33    20    10   ar
    34    20    15   ar
    35    30    31    1
@<TRIPOS>MOLECULE
*****
 31 35 0 0 0
SMALL
GASTEIGER

@<TRIPOS>ATOM
      1 N          62.1989   85.6163   10.8044 N.3     1  UNL1       -0.2684
      2 C          61.3737   86.0663    9.6353 C.3     1  UNL1        0.0725
      3 C          61.4172   87.5648    9.5867 C.3     1  UNL1        0.0204
      4 C          62.2691   88.0410   10.7257 C.3     1  UNL1        0.0359
      5 C          61.7860   89.2453    9.9731 C.3     1  UNL1        0.0244
      6 C          62.3393   90.4658   10.6471 C.3     1  UNL1        0.0909
      7 N          63.1645   90.0159   11.8161 N.pl3   1  UNL1       -0.3074
      8 C          63.1210   88.5173   11.8647 C.3     1  UNL1        0.0921
      9 C          62.7522   86.8368   11.4783 C.3     1  UNL1        0.0741
     10 C          63.9033   90.9079   12.7693 C.ar    1  UNL1        0.0504
     11 C          63.7252   90.7359   14.2486 C.ar    1  UNL1        0.0293
     12 C          64.4640   91.6279   15.2018 C.ar    1  UNL1        0.0606
     13 C          64.2858   91.4558   16.6812 C.3     1  UNL1        0.0521
     14 N          65.3809   92.6919   14.6755 N.ar    1  UNL1       -0.2496
     15 C          65.5591   92.8640   13.1960 C.ar    1  UNL1        0.0821
     16 C          66.4760   93.9280   12.6698 C.ar    1  UNL1        0.0191
     17 C          66.6542   94.1000   11.1904 C.ar    1  UNL1        0.0015
     18 C          65.9153   93.2080   10.2373 C.ar    1  UNL1        0.0001
     19 C          64.9984   92.1440   10.7635 C.ar    1  UNL1        0.0027
     20 C          64.8203   91.9720   12.2429 C.ar    1  UNL1        0.0310
     21 C          62.4300   84.1953   11.2256 C.3     1  UNL1        0.1074
     22 C          62.7509   84.0280   15.0900 C.ar    1  UNL1        0.1653
     23 N          63.3656   82.7192   14.6912 N.ar    1  UNL1       -0.2227
     24 C          63.3202   82.6225   13.1950 C.ar    1  UNL1        0.1044
     25 C          62.6775   83.8716   12.6692 C.ar    1  UNL1        0.0451
     26 S          62.3257   84.7403   13.8403 S.2     1  UNL1       -0.0543
     27 C          62.8283   86.4484   18.2342 C.3     1  UNL1        0.0950
     28 C          62.9894   85.9409   16.8319 C.2     1  UNL1        0.2280
     29 O          63.5500   86.8388   15.7690 O.2     1  UNL1       -0.2747
     30 N          62.5899   84.5355   16.4924 N.am    1  UNL1       -0.2641
     31 H          62.2220   83.9462   17.1899 H       1  UNL1        0.1567
@<TRIPOS>BOND
     1    27    28    1
     2    28    29    2
     3    28    30   am
     4    30    22    1
     5    22    23   ar
     6    23    24   ar
     7    24    25   ar
     8    25    21    1
     9    21     1    1
    10     1     2    1
    11     2     3    1
    12     3     4    1
    13     4     5    1
    14     5     6    1
    15     6     7    1
    16     7    10    1
    17    10    11   ar
    18    11    12   ar
    19    12    13    1
    20    12    14   ar
    21    14    15   ar
    22    15    16   ar
    23    16    17   ar
    24    17    18   ar
    25    18    19   ar
    26    19    20   ar
    27     7     8    1
    28     4     9    1
    29    25    26   ar
    30    26    22   ar
    31     9     1    1
    32     8     4    1
    33    20    10   ar
    34    20    15   ar
    35    30    31    1
