@<TRIPOS>MOLECULE
*****
 18 19 0 0 0
SMALL
GASTEIGER

@<TRIPOS>ATOM
      1 C          62.1325   85.3812   10.8081 C.2     1  UNL1        0.0034
      2 C          63.2071   84.5820   10.1324 C.2     1  UNL1        0.0420
      3 C          61.2297   89.1166    9.8175 C.ar    1  UNL1        0.1387
      4 C          60.2670   88.8862    8.6905 C.ar    1  UNL1        0.0369
      5 C          59.9262   87.4875    8.2693 C.ar    1  UNL1        0.0031
      6 C          60.5480   86.3192    8.9752 C.ar    1  UNL1        0.0002
      7 C          61.5107   86.5496   10.1022 C.ar    1  UNL1        0.0031
      8 C          61.8515   87.9483   10.5234 C.ar    1  UNL1        0.0369
      9 C          63.0042   90.9521   10.2993 C.3     1  UNL1        0.2525
     10 O          61.5705   90.5154   10.2387 O.3     1  UNL1       -0.4714
     11 C          63.8289   83.4136   10.8384 C.2     1  UNL1        0.1957
     12 O          64.7118   82.4645   10.0835 O.2     1  UNL1       -0.2866
     13 C          63.5679   83.1943   12.2991 C.ar    1  UNL1        0.0420
     14 C          64.3779   83.9308   13.3245 C.ar    1  UNL1        0.0239
     15 C          64.1169   83.7115   14.7852 C.ar    1  UNL1        0.0990
     16 N          63.0459   82.7557   15.2206 N.ar    1  UNL1       -0.2423
     17 C          62.2359   82.0192   14.1951 C.ar    1  UNL1        0.0990
     18 C          62.4970   82.2385   12.7343 C.ar    1  UNL1        0.0239
@<TRIPOS>BOND
     1     9    10    1
     2    10     3    1
     3     3     4   ar
     4     4     5   ar
     5     5     6   ar
     6     6     7   ar
     7     7     1    1
     8     1     2    2
     9     2    11    1
    10    11    12    2
    11    11    13    1
    12    13    14   ar
    13    14    15   ar
    14    15    16   ar
    15    16    17   ar
    16    17    18   ar
    17     7     8   ar
    18     8     3   ar
    19    18    13   ar
@<TRIPOS>MOLECULE
*****
 18 19 0 0 0
SMALL
GASTEIGER

@<TRIPOS>ATOM
      1 C          62.4068   85.5530   11.1214 C.2     1  UNL1        0.0034
      2 C          63.2182   84.6223   10.2697 C.2     1  UNL1        0.0420
      3 C          60.3482   88.0535    8.8280 C.ar    1  UNL1        0.1387
      4 C          60.7988   89.3757    9.3746 C.ar    1  UNL1        0.0369
      5 C          61.7854   89.4236   10.5035 C.ar    1  UNL1        0.0031
      6 C          62.3214   88.1494   11.0857 C.ar    1  UNL1        0.0002
      7 C          61.8708   86.8273   10.5391 C.ar    1  UNL1        0.0031
      8 C          60.8842   86.7793    9.4102 C.ar    1  UNL1        0.0369
      9 C          59.2311   89.1735    6.7670 C.3     1  UNL1        0.2525
     10 O          59.3616   88.0056    7.6991 O.3     1  UNL1       -0.4714
     11 C          63.7542   83.3480   10.8519 C.2     1  UNL1        0.1957
     12 O          64.5984   82.4362   10.0116 O.2     1  UNL1       -0.2866
     13 C          63.4460   82.9854   12.2745 C.ar    1  UNL1        0.0420
     14 C          62.3299   82.0311   12.5803 C.ar    1  UNL1        0.0239
     15 C          62.0217   81.6686   14.0028 C.ar    1  UNL1        0.0990
     16 N          62.8297   82.2604   15.1196 N.ar    1  UNL1       -0.2423
     17 C          63.9458   83.2147   14.8137 C.ar    1  UNL1        0.0990
     18 C          64.2540   83.5772   13.3911 C.ar    1  UNL1        0.0239
@<TRIPOS>BOND
     1     9    10    1
     2    10     3    1
     3     3     4   ar
     4     4     5   ar
     5     5     6   ar
     6     6     7   ar
     7     7     1    1
     8     1     2    2
     9     2    11    1
    10    11    12    2
    11    11    13    1
    12    13    14   ar
    13    14    15   ar
    14    15    16   ar
    15    16    17   ar
    16    17    18   ar
    17     7     8   ar
    18     8     3   ar
    19    18    13   ar
@<TRIPOS>MOLECULE
*****
 18 19 0 0 0
SMALL
GASTEIGER

@<TRIPOS>ATOM
      1 C          63.2306   88.7264   12.3323 C.2     1  UNL1        0.0034
      2 C          62.8633   90.0514   12.9318 C.2     1  UNL1        0.0420
      3 C          60.6726   88.3640    9.3198 C.ar    1  UNL1        0.1387
      4 C          60.5978   86.8716    9.1893 C.ar    1  UNL1        0.0369
      5 C          61.4006   85.9974   10.1065 C.ar    1  UNL1        0.0031
      6 C          62.2782   86.6156   11.1542 C.ar    1  UNL1        0.0002
      7 C          62.3530   88.1081   11.2846 C.ar    1  UNL1        0.0031
      8 C          61.5501   88.9823   10.3674 C.ar    1  UNL1        0.0369
      9 C          59.2999   88.6725    7.1356 C.3     1  UNL1        0.2525
     10 O          59.8698   89.2382    8.4026 O.3     1  UNL1       -0.4714
     11 C          63.7409   90.6697   13.9795 C.2     1  UNL1        0.1957
     12 O          63.3442   90.6035   15.4246 O.2     1  UNL1       -0.2866
     13 C          65.0151   91.3540   13.5821 C.ar    1  UNL1        0.0420
     14 C          65.0895   92.1075   12.2872 C.ar    1  UNL1        0.0239
     15 C          66.3637   92.7919   11.8898 C.ar    1  UNL1        0.0990
     16 N          67.5636   92.7228   12.7873 N.ar    1  UNL1       -0.2423
     17 C          67.4892   91.9693   14.0822 C.ar    1  UNL1        0.0990
     18 C          66.2149   91.2849   14.4796 C.ar    1  UNL1        0.0239
@<TRIPOS>BOND
     1     9    10    1
     2    10     3    1
     3     3     4   ar
     4     4     5   ar
     5     5     6   ar
     6     6     7   ar
     7     7     1    1
     8     1     2    2
     9     2    11    1
    10    11    12    2
    11    11    13    1
    12    13    14   ar
    13    14    15   ar
    14    15    16   ar
    15    16    17   ar
    16    17    18   ar
    17     7     8   ar
    18     8     3   ar
    19    18    13   ar
@<TRIPOS>MOLECULE
*****
 18 19 0 0 0
SMALL
GASTEIGER

@<TRIPOS>ATOM
      1 C          63.3584   90.3445   11.7155 C.2     1  UNL1        0.0034
      2 C          64.0557   91.4564   10.9895 C.2     1  UNL1        0.0420
      3 C          61.3635   87.1502   10.4637 C.ar    1  UNL1        0.1387
      4 C          60.3516   87.7854    9.5568 C.ar    1  UNL1        0.0369
      5 C          60.3419   89.2736    9.3694 C.ar    1  UNL1        0.0031
      6 C          61.3442   90.1266   10.0890 C.ar    1  UNL1        0.0002
      7 C          62.3561   89.4914   10.9959 C.ar    1  UNL1        0.0031
      8 C          62.3657   88.0032   11.1832 C.ar    1  UNL1        0.0369
      9 C          62.3278   85.0346   11.6231 C.3     1  UNL1        0.2525
     10 O          61.3731   85.6620   10.6510 O.3     1  UNL1       -0.4714
     11 C          65.0581   92.3095   11.7091 C.2     1  UNL1        0.1957
     12 O          65.0135   92.4192   13.2044 O.2     1  UNL1       -0.2866
     13 C          66.1049   93.0527   10.9334 C.ar    1  UNL1        0.0420
     14 C          66.0157   94.5432   10.7909 C.ar    1  UNL1        0.0239
     15 C          67.0626   95.2864   10.0152 C.ar    1  UNL1        0.0990
     16 N          68.1987   94.5391    9.3820 N.ar    1  UNL1       -0.2423
     17 C          68.2878   93.0485    9.5245 C.ar    1  UNL1        0.0990
     18 C          67.2409   92.3053   10.3002 C.ar    1  UNL1        0.0239
@<TRIPOS>BOND
     1     9    10    1
     2    10     3    1
     3     3     4   ar
     4     4     5   ar
     5     5     6   ar
     6     6     7   ar
     7     7     1    1
     8     1     2    2
     9     2    11    1
    10    11    12    2
    11    11    13    1
    12    13    14   ar
    13    14    15   ar
    14    15    16   ar
    15    16    17   ar
    16    17    18   ar
    17     7     8   ar
    18     8     3   ar
    19    18    13   ar
@<TRIPOS>MOLECULE
*****
 18 19 0 0 0
SMALL
GASTEIGER

@<TRIPOS>ATOM
      1 C          63.0054   91.2743   10.5419 C.2     1  UNL1        0.0034
      2 C          62.1951   90.1022   11.0104 C.2     1  UNL1        0.0420
      3 C          66.5633   92.8424   11.3373 C.ar    1  UNL1        0.1387
      4 C          66.7106   92.4900   12.7878 C.ar    1  UNL1        0.0369
      5 C          65.6228   91.7323   13.4897 C.ar    1  UNL1        0.0031
      6 C          64.3878   91.3270   12.7411 C.ar    1  UNL1        0.0002
      7 C          64.2405   91.6795   11.2906 C.ar    1  UNL1        0.0031
      8 C          65.3282   92.4372   10.5887 C.ar    1  UNL1        0.0369
      9 C          67.3005   94.6692    9.6434 C.3     1  UNL1        0.2525
     10 O          67.6510   93.6001   10.6353 O.3     1  UNL1       -0.4714
     11 C          60.9600   89.6970   10.2618 C.2     1  UNL1        0.1957
     12 O          59.7422   90.5722   10.2944 O.2     1  UNL1       -0.2866
     13 C          60.9427   88.4166    9.4806 C.ar    1  UNL1        0.0420
     14 C          62.0808   87.4474    9.6039 C.ar    1  UNL1        0.0239
     15 C          62.0635   86.1670    8.8227 C.ar    1  UNL1        0.0990
     16 N          60.9081   85.8559    7.9181 N.ar    1  UNL1       -0.2423
     17 C          59.7700   86.8251    7.7948 C.ar    1  UNL1        0.0990
     18 C          59.7873   88.1055    8.5760 C.ar    1  UNL1        0.0239
@<TRIPOS>BOND
     1     9    10    1
     2    10     3    1
     3     3     4   ar
     4     4     5   ar
     5     5     6   ar
     6     6     7   ar
     7     7     1    1
     8     1     2    2
     9     2    11    1
    10    11    12    2
    11    11    13    1
    12    13    14   ar
    13    14    15   ar
    14    15    16   ar
    15    16    17   ar
    16    17    18   ar
    17     7     8   ar
    18     8     3   ar
    19    18    13   ar
@<TRIPOS>MOLECULE
*****
 18 19 0 0 0
SMALL
GASTEIGER

@<TRIPOS>ATOM
      1 C          64.2119   87.8439   14.6737 C.2     1  UNL1        0.0034
      2 C          63.8686   86.5331   14.0306 C.2     1  UNL1        0.0420
      3 C          64.9252   91.5726   13.5168 C.ar    1  UNL1        0.1387
      4 C          64.1329   91.6311   12.2445 C.ar    1  UNL1        0.0369
      5 C          63.3669   90.4272   11.7820 C.ar    1  UNL1        0.0031
      6 C          63.3932   89.1649   12.5917 C.ar    1  UNL1        0.0002
      7 C          64.1855   89.1064   13.8639 C.ar    1  UNL1        0.0031
      8 C          64.9516   90.3102   14.3265 C.ar    1  UNL1        0.0369
      9 C          66.4163   93.6322   12.9834 C.3     1  UNL1        0.2525
     10 O          65.6913   92.7764   13.9793 O.3     1  UNL1       -0.4714
     11 C          63.8949   85.2706   14.8404 C.2     1  UNL1        0.1957
     12 O          64.2086   85.3263   16.3062 O.2     1  UNL1       -0.2866
     13 C          63.6076   83.9527   14.1844 C.ar    1  UNL1        0.0420
     14 C          62.5449   83.0531   14.7424 C.ar    1  UNL1        0.0239
     15 C          62.2575   81.7351   14.0864 C.ar    1  UNL1        0.0990
     16 N          63.0329   81.3167   12.8724 N.ar    1  UNL1       -0.2423
     17 C          64.0957   82.2163   12.3145 C.ar    1  UNL1        0.0990
     18 C          64.3830   83.5343   12.9705 C.ar    1  UNL1        0.0239
@<TRIPOS>BOND
     1     9    10    1
     2    10     3    1
     3     3     4   ar
     4     4     5   ar
     5     5     6   ar
     6     6     7   ar
     7     7     1    1
     8     1     2    2
     9     2    11    1
    10    11    12    2
    11    11    13    1
    12    13    14   ar
    13    14    15   ar
    14    15    16   ar
    15    16    17   ar
    16    17    18   ar
    17     7     8   ar
    18     8     3   ar
    19    18    13   ar
@<TRIPOS>MOLECULE
*****
 18 19 0 0 0
SMALL
GASTEIGER

@<TRIPOS>ATOM
      1 C          62.8519   90.6629   11.8465 C.2     1  UNL1        0.0034
      2 C          62.3357   90.6436   10.4383 C.2     1  UNL1        0.0420
      3 C          66.0720   91.8557   13.8360 C.ar    1  UNL1        0.1387
      4 C          66.7916   92.6305   12.7721 C.ar    1  UNL1        0.0369
      5 C          66.1980   92.7494   11.3997 C.ar    1  UNL1        0.0031
      6 C          64.8848   92.0936   11.0912 C.ar    1  UNL1        0.0002
      7 C          64.1652   91.3188   12.1550 C.ar    1  UNL1        0.0031
      8 C          64.7588   91.1998   13.5274 C.ar    1  UNL1        0.0369
      9 C          67.4896   92.8578   15.7689 C.3     1  UNL1        0.2525
     10 O          66.6656   91.7367   15.2084 O.3     1  UNL1       -0.4714
     11 C          61.0224   89.9877   10.1297 C.2     1  UNL1        0.1957
     12 O          59.7385   90.6679   10.5026 O.2     1  UNL1       -0.2866
     13 C          60.9930   88.6518    9.4484 C.ar    1  UNL1        0.0420
     14 C          62.0946   87.6626    9.6894 C.ar    1  UNL1        0.0239
     15 C          62.0652   86.3266    9.0080 C.ar    1  UNL1        0.0990
     16 N          60.9343   85.9798    8.0856 N.ar    1  UNL1       -0.2423
     17 C          59.8327   86.9690    7.8446 C.ar    1  UNL1        0.0990
     18 C          59.8621   88.3050    8.5260 C.ar    1  UNL1        0.0239
@<TRIPOS>BOND
     1     9    10    1
     2    10     3    1
     3     3     4   ar
     4     4     5   ar
     5     5     6   ar
     6     6     7   ar
     7     7     1    1
     8     1     2    2
     9     2    11    1
    10    11    12    2
    11    11    13    1
    12    13    14   ar
    13    14    15   ar
    14    15    16   ar
    15    16    17   ar
    16    17    18   ar
    17     7     8   ar
    18     8     3   ar
    19    18    13   ar
@<TRIPOS>MOLECULE
*****
 18 19 0 0 0
SMALL
GASTEIGER

@<TRIPOS>ATOM
      1 C          62.6609   85.5063   11.7448 C.2     1  UNL1        0.0034
      2 C          63.4724   85.6136   13.0017 C.2     1  UNL1        0.0420
      3 C          60.4141   87.8648    9.4777 C.ar    1  UNL1        0.1387
      4 C          60.9639   89.2128    9.8389 C.ar    1  UNL1        0.0369
      5 C          62.0794   89.3253   10.8355 C.ar    1  UNL1        0.0031
      6 C          62.6450   88.0899   11.4707 C.ar    1  UNL1        0.0002
      7 C          62.0952   86.7419   11.1095 C.ar    1  UNL1        0.0031
      8 C          60.9798   86.6293   10.1130 C.ar    1  UNL1        0.0369
      9 C          59.1747   86.5235    7.6298 C.3     1  UNL1        0.2525
     10 O          59.2986   87.7522    8.4811 O.3     1  UNL1       -0.4714
     11 C          64.0380   84.3780   13.6370 C.2     1  UNL1        0.1957
     12 O          65.3145   84.4550   14.4210 O.2     1  UNL1       -0.2866
     13 C          63.3272   83.0656   13.4884 C.ar    1  UNL1        0.0420
     14 C          62.2527   82.6801   14.4615 C.ar    1  UNL1        0.0239
     15 C          61.5418   81.3677   14.3128 C.ar    1  UNL1        0.0990
     16 N          61.9054   80.4406   13.1910 N.ar    1  UNL1       -0.2423
     17 C          62.9799   80.8261   12.2179 C.ar    1  UNL1        0.0990
     18 C          63.6908   82.1386   12.3666 C.ar    1  UNL1        0.0239
@<TRIPOS>BOND
     1     9    10    1
     2    10     3    1
     3     3     4   ar
     4     4     5   ar
     5     5     6   ar
     6     6     7   ar
     7     7     1    1
     8     1     2    2
     9     2    11    1
    10    11    12    2
    11    11    13    1
    12    13    14   ar
    13    14    15   ar
    14    15    16   ar
    15    16    17   ar
    16    17    18   ar
    17     7     8   ar
    18     8     3   ar
    19    18    13   ar
@<TRIPOS>MOLECULE
*****
 18 19 0 0 0
SMALL
GASTEIGER

@<TRIPOS>ATOM
      1 C          62.2850   85.4059   11.5481 C.2     1  UNL1        0.0034
      2 C          63.2624   85.6982   12.6476 C.2     1  UNL1        0.0420
      3 C          61.4554   89.0722   10.2752 C.ar    1  UNL1        0.1387
      4 C          60.6081   88.7705    9.0748 C.ar    1  UNL1        0.0369
      5 C          60.3199   87.3473    8.6987 C.ar    1  UNL1        0.0031
      6 C          60.8788   86.2258    9.5231 C.ar    1  UNL1        0.0002
      7 C          61.7260   86.5274   10.7236 C.ar    1  UNL1        0.0031
      8 C          62.0143   87.9506   11.0997 C.ar    1  UNL1        0.0369
      9 C          63.0398   91.1310   10.2439 C.3     1  UNL1        0.2525
     10 O          61.7436   90.4954   10.6513 O.3     1  UNL1       -0.4714
     11 C          63.8214   84.5767   13.4721 C.2     1  UNL1        0.1957
     12 O          64.9784   84.8274   14.3932 O.2     1  UNL1       -0.2866
     13 C          63.2233   83.2045   13.3755 C.ar    1  UNL1        0.0420
     14 C          63.6294   82.2861   12.2612 C.ar    1  UNL1        0.0239
     15 C          63.0313   80.9139   12.1645 C.ar    1  UNL1        0.0990
     16 N          62.0272   80.4600   13.1823 N.ar    1  UNL1       -0.2423
     17 C          61.6211   81.3784   14.2966 C.ar    1  UNL1        0.0990
     18 C          62.2192   82.7506   14.3932 C.ar    1  UNL1        0.0239
@<TRIPOS>BOND
     1     9    10    1
     2    10     3    1
     3     3     4   ar
     4     4     5   ar
     5     5     6   ar
     6     6     7   ar
     7     7     1    1
     8     1     2    2
     9     2    11    1
    10    11    12    2
    11    11    13    1
    12    13    14   ar
    13    14    15   ar
    14    15    16   ar
    15    16    17   ar
    16    17    18   ar
    17     7     8   ar
    18     8     3   ar
    19    18    13   ar
