@<TRIPOS>MOLECULE
*****
 31 33 0 0 0
SMALL
GASTEIGER

@<TRIPOS>ATOM
      1 C          60.2949   88.1083    9.6043 C.3     1  UNL1        0.2320
      2 C          62.9985   84.5782   10.2962 C.ar    1  UNL1       -0.0062
      3 C          62.1600   85.1123   11.4195 C.ar    1  UNL1       -0.0031
      4 C          61.2588   86.2890   11.1889 C.ar    1  UNL1       -0.0010
      5 C          61.1961   86.9315    9.8350 C.ar    1  UNL1        0.0211
      6 C          62.0345   86.3975    8.7117 C.ar    1  UNL1       -0.0010
      7 C          62.9357   85.2208    8.9423 C.ar    1  UNL1       -0.0031
      8 C          63.8997   83.4014   10.5269 C.3     1  UNL1        0.0992
      9 C          62.8042   81.4279   11.8132 C.3     1  UNL1        0.0899
     10 N          63.7600   82.5833   11.7763 N.3     1  UNL1       -0.2677
     11 C          64.5761   82.9206   12.9888 C.3     1  UNL1        0.0726
     12 C          64.0339   83.8673   14.0183 C.3     1  UNL1        0.0231
     13 C          64.8906   84.9851   14.5344 C.3     1  UNL1        0.0737
     14 C          64.2734   86.3116   14.8655 C.3     1  UNL1        0.3186
     15 F          64.2580   87.4080   13.8419 F       1  UNL1       -0.1984
     16 F          63.6717   86.5417   16.2201 F       1  UNL1       -0.1984
     17 O          60.8769   89.4845    9.4738 O.3     1  UNL1       -0.4705
     18 C          61.8610   89.9822   10.4907 C.ar    1  UNL1        0.1421
     19 C          63.0056   90.8524   10.0635 C.ar    1  UNL1        0.0371
     20 C          63.9896   91.3500   11.0803 C.ar    1  UNL1        0.0059
     21 C          63.8290   90.9774   12.5244 C.ar    1  UNL1        0.0335
     22 C          64.8131   91.4751   13.5413 C.ar    1  UNL1        0.0163
     23 C          64.6525   91.1025   14.9854 C.ar    1  UNL1        0.0805
     24 C          63.5079   90.2323   15.4126 C.ar    1  UNL1        0.3457
     25 O          63.3473   89.8597   16.8567 O.2     1  UNL1       -0.2445
     26 O          62.5239   89.7346   14.3957 O.2     1  UNL1       -0.4209
     27 C          62.6844   90.1072   12.9516 C.ar    1  UNL1        0.1515
     28 C          61.7004   89.6096   11.9348 C.ar    1  UNL1        0.0745
     29 C          65.9577   92.3453   13.1141 C.3     1  UNL1        0.1639
     30 O          65.7581   93.8237   12.9573 O.3     1  UNL1       -0.3772
     31 H          65.1446   93.9913   12.2248 H       1  UNL1        0.2109
@<TRIPOS>BOND
     1     9    10    1
     2    10    11    1
     3    11    12    1
     4    12    13    1
     5    13    14    1
     6    14    15    1
     7    14    16    1
     8    10     8    1
     9     8     2    1
    10     2     3   ar
    11     3     4   ar
    12     4     5   ar
    13     5     1    1
    14     1    17    1
    15    17    18    1
    16    18    19   ar
    17    19    20   ar
    18    20    21   ar
    19    21    22   ar
    20    22    29    1
    21    29    30    1
    22    22    23   ar
    23    23    24   ar
    24    24    25    2
    25    24    26   ar
    26    26    27   ar
    27    27    28   ar
    28     5     6   ar
    29     6     7   ar
    30     7     2   ar
    31    28    18   ar
    32    27    21   ar
    33    30    31    1
@<TRIPOS>MOLECULE
*****
 31 33 0 0 0
SMALL
GASTEIGER

@<TRIPOS>ATOM
      1 C          61.4858   88.3768    9.4488 C.3     1  UNL1        0.2320
      2 C          62.9776   84.3442   10.7764 C.ar    1  UNL1       -0.0062
      3 C          63.1953   84.7963    9.3628 C.ar    1  UNL1       -0.0031
      4 C          62.6981   86.1405    8.9203 C.ar    1  UNL1       -0.0010
      5 C          61.9831   87.0326    9.8914 C.ar    1  UNL1        0.0211
      6 C          61.7654   86.5805   11.3049 C.ar    1  UNL1       -0.0010
      7 C          62.2626   85.2363   11.7475 C.ar    1  UNL1       -0.0031
      8 C          63.4749   83.0000   11.2189 C.3     1  UNL1        0.0992
      9 C          62.2160   81.5696   12.9850 C.3     1  UNL1        0.0899
     10 N          63.2872   82.5618   12.6411 N.3     1  UNL1       -0.2677
     11 C          64.1706   83.1157   13.7194 C.3     1  UNL1        0.0726
     12 C          63.5703   83.5983   15.0065 C.3     1  UNL1        0.0231
     13 C          63.5400   85.0657   15.3161 C.3     1  UNL1        0.0737
     14 C          64.5526   85.9838   14.6981 C.3     1  UNL1        0.3186
     15 F          64.1005   87.1691   13.8977 F       1  UNL1       -0.1984
     16 F          66.0172   85.7164   14.8804 F       1  UNL1       -0.1984
     17 O          61.1877   89.4383   10.4659 O.3     1  UNL1       -0.4705
     18 C          62.3106   90.1150   11.1949 C.ar    1  UNL1        0.1421
     19 C          62.5402   89.8297   12.6494 C.ar    1  UNL1        0.0371
     20 C          63.6630   90.5064   13.3783 C.ar    1  UNL1        0.0059
     21 C          64.5562   91.4684   12.6526 C.ar    1  UNL1        0.0335
     22 C          65.6791   92.1451   13.3816 C.ar    1  UNL1        0.0163
     23 C          66.5723   93.1072   12.6559 C.ar    1  UNL1        0.0805
     24 C          66.3427   93.3925   11.2012 C.ar    1  UNL1        0.3457
     25 O          67.2359   94.3545   10.4755 O.2     1  UNL1       -0.2445
     26 O          65.2199   92.7158   10.4723 O.2     1  UNL1       -0.4209
     27 C          64.3267   91.7537   11.1980 C.ar    1  UNL1        0.1515
     28 C          63.2038   91.0770   10.4692 C.ar    1  UNL1        0.0745
     29 C          65.9087   91.8598   14.8361 C.3     1  UNL1        0.1639
     30 O          65.3879   92.8058   15.8773 O.3     1  UNL1       -0.3772
     31 H          65.8511   93.6549   15.8034 H       1  UNL1        0.2109
@<TRIPOS>BOND
     1     9    10    1
     2    10    11    1
     3    11    12    1
     4    12    13    1
     5    13    14    1
     6    14    15    1
     7    14    16    1
     8    10     8    1
     9     8     2    1
    10     2     3   ar
    11     3     4   ar
    12     4     5   ar
    13     5     1    1
    14     1    17    1
    15    17    18    1
    16    18    19   ar
    17    19    20   ar
    18    20    21   ar
    19    21    22   ar
    20    22    29    1
    21    29    30    1
    22    22    23   ar
    23    23    24   ar
    24    24    25    2
    25    24    26   ar
    26    26    27   ar
    27    27    28   ar
    28     5     6   ar
    29     6     7   ar
    30     7     2   ar
    31    28    18   ar
    32    27    21   ar
    33    30    31    1
@<TRIPOS>MOLECULE
*****
 31 33 0 0 0
SMALL
GASTEIGER

@<TRIPOS>ATOM
      1 C          61.4229   89.4732   10.7800 C.3     1  UNL1        0.2320
      2 C          64.9241   92.0639   11.9112 C.ar    1  UNL1       -0.0062
      3 C          64.3156   91.1409   12.9250 C.ar    1  UNL1       -0.0031
      4 C          63.1485   90.2774   12.5480 C.ar    1  UNL1       -0.0010
      5 C          62.5900   90.3368   11.1571 C.ar    1  UNL1        0.0211
      6 C          63.1986   91.2597   10.1433 C.ar    1  UNL1       -0.0010
      7 C          64.3656   92.1233   10.5204 C.ar    1  UNL1       -0.0031
      8 C          66.0913   92.9275   12.2883 C.3     1  UNL1        0.0992
      9 C          67.7572   92.0361   14.0715 C.3     1  UNL1        0.0899
     10 N          67.4078   92.2988   12.6366 N.3     1  UNL1       -0.2677
     11 C          68.3750   91.9328   11.5501 C.3     1  UNL1        0.0726
     12 C          67.9564   92.0209   10.1124 C.3     1  UNL1        0.0231
     13 C          68.4639   93.1389    9.2507 C.3     1  UNL1        0.0737
     14 C          67.6716   94.4062    9.1228 C.3     1  UNL1        0.3186
     15 F          67.1228   94.8161    7.7883 F       1  UNL1       -0.1984
     16 F          67.4280   95.2635   10.3293 F       1  UNL1       -0.1984
     17 O          61.5908   88.3913    9.7548 O.3     1  UNL1       -0.4705
     18 C          62.0475   87.0253   10.1738 C.ar    1  UNL1        0.1421
     19 C          62.5206   86.0437    9.1429 C.ar    1  UNL1        0.0371
     20 C          62.9773   84.6778    9.5620 C.ar    1  UNL1        0.0059
     21 C          62.9609   84.2934   11.0118 C.ar    1  UNL1        0.0335
     22 C          63.4176   82.9274   11.4308 C.ar    1  UNL1        0.0163
     23 C          63.4011   82.5430   12.8806 C.ar    1  UNL1        0.0805
     24 C          62.9279   83.5247   13.9114 C.ar    1  UNL1        0.3457
     25 O          62.9115   83.1403   15.3613 O.2     1  UNL1       -0.2445
     26 O          62.4713   84.8906   13.4924 O.2     1  UNL1       -0.4209
     27 C          62.4877   85.2750   12.0426 C.ar    1  UNL1        0.1515
     28 C          62.0310   86.6409   11.6236 C.ar    1  UNL1        0.0745
     29 C          63.8907   81.9458   10.4000 C.3     1  UNL1        0.1639
     30 O          63.1091   80.6913   10.1444 O.3     1  UNL1       -0.3772
     31 H          63.1382   80.1260   10.9322 H       1  UNL1        0.2109
@<TRIPOS>BOND
     1     9    10    1
     2    10    11    1
     3    11    12    1
     4    12    13    1
     5    13    14    1
     6    14    15    1
     7    14    16    1
     8    10     8    1
     9     8     2    1
    10     2     3   ar
    11     3     4   ar
    12     4     5   ar
    13     5     1    1
    14     1    17    1
    15    17    18    1
    16    18    19   ar
    17    19    20   ar
    18    20    21   ar
    19    21    22   ar
    20    22    29    1
    21    29    30    1
    22    22    23   ar
    23    23    24   ar
    24    24    25    2
    25    24    26   ar
    26    26    27   ar
    27    27    28   ar
    28     5     6   ar
    29     6     7   ar
    30     7     2   ar
    31    28    18   ar
    32    27    21   ar
    33    30    31    1
@<TRIPOS>MOLECULE
*****
 31 33 0 0 0
SMALL
GASTEIGER

@<TRIPOS>ATOM
      1 C          61.2182   89.3561   10.6722 C.3     1  UNL1        0.2320
      2 C          64.6756   91.9950   11.8266 C.ar    1  UNL1       -0.0062
      3 C          64.1655   92.0014   10.4160 C.ar    1  UNL1       -0.0031
      4 C          63.0130   91.1218   10.0312 C.ar    1  UNL1       -0.0010
      5 C          62.3707   90.2358   11.0570 C.ar    1  UNL1        0.0211
      6 C          62.8808   90.2293   12.4676 C.ar    1  UNL1       -0.0010
      7 C          64.0332   91.1089   12.8524 C.ar    1  UNL1       -0.0031
      8 C          65.8281   92.8746   12.2114 C.3     1  UNL1        0.0992
      9 C          68.0000   92.4130   10.8626 C.3     1  UNL1        0.0899
     10 N          67.2299   92.3447   12.1479 N.3     1  UNL1       -0.2677
     11 C          67.8616   91.7465   13.3699 C.3     1  UNL1        0.0726
     12 C          67.1283   91.7640   14.6782 C.3     1  UNL1        0.0231
     13 C          67.2044   92.9718   15.5645 C.3     1  UNL1        0.0737
     14 C          68.5248   93.4063   16.1285 C.3     1  UNL1        0.3186
     15 F          68.8594   94.8659   16.2154 F       1  UNL1       -0.1984
     16 F          69.5104   92.3811   16.6055 F       1  UNL1       -0.1984
     17 O          61.4149   88.2580    9.6695 O.3     1  UNL1       -0.4705
     18 C          61.9311   86.9211   10.1128 C.ar    1  UNL1        0.1421
     19 C          62.4451   85.9420    9.0994 C.ar    1  UNL1        0.0371
     20 C          62.9612   84.6052    9.5427 C.ar    1  UNL1        0.0059
     21 C          62.9633   84.2476   10.9994 C.ar    1  UNL1        0.0335
     22 C          63.4794   82.9107   11.4427 C.ar    1  UNL1        0.0163
     23 C          63.4815   82.5530   12.8994 C.ar    1  UNL1        0.0805
     24 C          62.9675   83.5322   13.9129 C.ar    1  UNL1        0.3457
     25 O          62.9695   83.1745   15.3696 O.2     1  UNL1       -0.2445
     26 O          62.4513   84.8690   13.4696 O.2     1  UNL1       -0.4209
     27 C          62.4493   85.2267   12.0128 C.ar    1  UNL1        0.1515
     28 C          61.9331   86.5635   11.5695 C.ar    1  UNL1        0.0745
     29 C          63.9935   81.9316   10.4293 C.3     1  UNL1        0.1639
     30 O          63.2008   80.6994   10.1075 O.3     1  UNL1       -0.3772
     31 H          63.1676   80.1235   10.8874 H       1  UNL1        0.2109
@<TRIPOS>BOND
     1     9    10    1
     2    10    11    1
     3    11    12    1
     4    12    13    1
     5    13    14    1
     6    14    15    1
     7    14    16    1
     8    10     8    1
     9     8     2    1
    10     2     3   ar
    11     3     4   ar
    12     4     5   ar
    13     5     1    1
    14     1    17    1
    15    17    18    1
    16    18    19   ar
    17    19    20   ar
    18    20    21   ar
    19    21    22   ar
    20    22    29    1
    21    29    30    1
    22    22    23   ar
    23    23    24   ar
    24    24    25    2
    25    24    26   ar
    26    26    27   ar
    27    27    28   ar
    28     5     6   ar
    29     6     7   ar
    30     7     2   ar
    31    28    18   ar
    32    27    21   ar
    33    30    31    1
@<TRIPOS>MOLECULE
*****
 31 33 0 0 0
SMALL
GASTEIGER

@<TRIPOS>ATOM
      1 C          61.3085   87.6518    9.8407 C.3     1  UNL1        0.2320
      2 C          63.3605   83.7468   10.7294 C.ar    1  UNL1       -0.0062
      3 C          62.6896   84.5096   11.8330 C.ar    1  UNL1       -0.0031
      4 C          62.0056   85.8113   11.5368 C.ar    1  UNL1       -0.0010
      5 C          61.9926   86.3501   10.1370 C.ar    1  UNL1        0.0211
      6 C          62.6635   85.5872    9.0334 C.ar    1  UNL1       -0.0010
      7 C          63.3474   84.2856    9.3296 C.ar    1  UNL1       -0.0031
      8 C          64.0445   82.4450   11.0256 C.3     1  UNL1        0.0992
      9 C          62.9882   80.2917   10.0271 C.3     1  UNL1        0.0899
     10 N          63.2345   81.1946   11.1993 N.3     1  UNL1       -0.2677
     11 C          62.6706   80.8471   12.5451 C.3     1  UNL1        0.0726
     12 C          63.2303   81.4872   13.7808 C.3     1  UNL1        0.0231
     13 C          62.3763   82.4080   14.6010 C.3     1  UNL1        0.0737
     14 C          62.9910   83.5978   15.2769 C.3     1  UNL1        0.3186
     15 F          62.1444   84.4972   16.1280 F       1  UNL1       -0.1984
     16 F          64.4521   83.8880   15.1017 F       1  UNL1       -0.1984
     17 O          61.1480   88.6780   10.9229 O.3     1  UNL1       -0.4705
     18 C          62.2199   89.7025   11.1501 C.ar    1  UNL1        0.1421
     19 C          62.5604   90.6842   10.0683 C.ar    1  UNL1        0.0371
     20 C          63.6323   91.7086   10.2955 C.ar    1  UNL1        0.0059
     21 C          64.3637   91.7512   11.6045 C.ar    1  UNL1        0.0335
     22 C          65.4356   92.7757   11.8316 C.ar    1  UNL1        0.0163
     23 C          66.1670   92.8183   13.1405 C.ar    1  UNL1        0.0805
     24 C          65.8265   91.8365   14.2223 C.ar    1  UNL1        0.3457
     25 O          66.5579   91.8791   15.5312 O.2     1  UNL1       -0.2445
     26 O          64.7546   90.8121   13.9951 O.2     1  UNL1       -0.4209
     27 C          64.0232   90.7695   12.6862 C.ar    1  UNL1        0.1515
     28 C          62.9513   89.7451   12.4590 C.ar    1  UNL1        0.0745
     29 C          65.7761   93.7575   10.7499 C.3     1  UNL1        0.1639
     30 O          65.4871   95.2167   10.9433 O.3     1  UNL1       -0.3772
     31 H          64.5278   95.3529   10.9901 H       1  UNL1        0.2109
@<TRIPOS>BOND
     1     9    10    1
     2    10    11    1
     3    11    12    1
     4    12    13    1
     5    13    14    1
     6    14    15    1
     7    14    16    1
     8    10     8    1
     9     8     2    1
    10     2     3   ar
    11     3     4   ar
    12     4     5   ar
    13     5     1    1
    14     1    17    1
    15    17    18    1
    16    18    19   ar
    17    19    20   ar
    18    20    21   ar
    19    21    22   ar
    20    22    29    1
    21    29    30    1
    22    22    23   ar
    23    23    24   ar
    24    24    25    2
    25    24    26   ar
    26    26    27   ar
    27    27    28   ar
    28     5     6   ar
    29     6     7   ar
    30     7     2   ar
    31    28    18   ar
    32    27    21   ar
    33    30    31    1
@<TRIPOS>MOLECULE
*****
 31 33 0 0 0
SMALL
GASTEIGER

@<TRIPOS>ATOM
      1 C          64.4052   83.9824   15.3242 C.3     1  UNL1        0.2320
      2 C          63.4885   88.3152   16.1219 C.ar    1  UNL1       -0.0062
      3 C          62.9176   87.2516   17.0123 C.ar    1  UNL1       -0.0031
      4 C          63.2232   85.8073   16.7464 C.ar    1  UNL1       -0.0010
      5 C          64.0996   85.4267   15.5901 C.ar    1  UNL1        0.0211
      6 C          64.6705   86.4904   14.6998 C.ar    1  UNL1       -0.0010
      7 C          64.3649   87.9346   14.9657 C.ar    1  UNL1       -0.0031
      8 C          63.1829   89.7595   16.3879 C.3     1  UNL1        0.0992
      9 C          63.6449   90.8573   14.0790 C.3     1  UNL1        0.0899
     10 N          63.8395   90.8287   15.5660 N.3     1  UNL1       -0.2677
     11 C          64.6908   91.8694   16.2311 C.3     1  UNL1        0.0726
     12 C          65.9193   92.3856   15.5425 C.3     1  UNL1        0.0231
     13 C          67.1691   92.6428   16.3312 C.3     1  UNL1        0.0737
     14 C          68.3627   93.2604   15.6648 C.3     1  UNL1        0.3186
     15 F          69.0390   92.5502   14.5298 F       1  UNL1       -0.1984
     16 F          68.8799   94.5881   16.1335 F       1  UNL1       -0.1984
     17 O          63.5807   83.2108   14.3369 O.3     1  UNL1       -0.4705
     18 C          63.2684   83.8036   12.9948 C.ar    1  UNL1        0.1421
     19 C          63.9071   83.2414   11.7596 C.ar    1  UNL1        0.0371
     20 C          63.5948   83.8343   10.4176 C.ar    1  UNL1        0.0059
     21 C          62.6438   84.9893   10.3109 C.ar    1  UNL1        0.0335
     22 C          62.3315   85.5822    8.9688 C.ar    1  UNL1        0.0163
     23 C          61.3805   86.7372    8.8620 C.ar    1  UNL1        0.0805
     24 C          60.7417   87.2994   10.0974 C.ar    1  UNL1        0.3457
     25 O          59.7907   88.4544    9.9906 O.2     1  UNL1       -0.2445
     26 O          61.0540   86.7066   11.4394 O.2     1  UNL1       -0.4209
     27 C          62.0050   85.5515   11.5461 C.ar    1  UNL1        0.1515
     28 C          62.3173   84.9587   12.8881 C.ar    1  UNL1        0.0745
     29 C          62.9703   85.0199    7.7335 C.3     1  UNL1        0.1639
     30 O          62.1276   84.6903    6.5371 O.3     1  UNL1       -0.3772
     31 H          61.5271   83.9606    6.7557 H       1  UNL1        0.2109
@<TRIPOS>BOND
     1     9    10    1
     2    10    11    1
     3    11    12    1
     4    12    13    1
     5    13    14    1
     6    14    15    1
     7    14    16    1
     8    10     8    1
     9     8     2    1
    10     2     3   ar
    11     3     4   ar
    12     4     5   ar
    13     5     1    1
    14     1    17    1
    15    17    18    1
    16    18    19   ar
    17    19    20   ar
    18    20    21   ar
    19    21    22   ar
    20    22    29    1
    21    29    30    1
    22    22    23   ar
    23    23    24   ar
    24    24    25    2
    25    24    26   ar
    26    26    27   ar
    27    27    28   ar
    28     5     6   ar
    29     6     7   ar
    30     7     2   ar
    31    28    18   ar
    32    27    21   ar
    33    30    31    1
@<TRIPOS>MOLECULE
*****
 31 33 0 0 0
SMALL
GASTEIGER

@<TRIPOS>ATOM
      1 C          61.1021   88.5152   10.1109 C.3     1  UNL1        0.2320
      2 C          63.2047   84.5366   10.0928 C.ar    1  UNL1       -0.0062
      3 C          62.5831   85.0507   11.3574 C.ar    1  UNL1       -0.0031
      4 C          61.8822   86.3768   11.3635 C.ar    1  UNL1       -0.0010
      5 C          61.8030   87.1889   10.1049 C.ar    1  UNL1        0.0211
      6 C          62.4246   86.6749    8.8402 C.ar    1  UNL1       -0.0010
      7 C          63.1254   85.3487    8.8342 C.ar    1  UNL1       -0.0031
      8 C          63.9056   83.2104   10.0867 C.3     1  UNL1        0.0992
      9 C          63.1190   80.9314   11.0548 C.3     1  UNL1        0.0899
     10 N          63.7534   82.2764   11.2506 N.3     1  UNL1       -0.2677
     11 C          64.2357   82.6875   12.6101 C.3     1  UNL1        0.0726
     12 C          63.6269   82.0777   13.8379 C.3     1  UNL1        0.0231
     13 C          62.1405   82.1152   14.0358 C.3     1  UNL1        0.0737
     14 C          61.3382   80.8518   13.9343 C.3     1  UNL1        0.3186
     15 F          59.8506   80.8908   14.1225 F       1  UNL1       -0.1984
     16 F          62.0236   79.5494   13.6445 F       1  UNL1       -0.1984
     17 O          61.0707   89.3412   11.3625 O.3     1  UNL1       -0.4705
     18 C          62.3309   89.9715   11.8771 C.ar    1  UNL1        0.1421
     19 C          62.8763   89.5727   13.2162 C.ar    1  UNL1        0.0371
     20 C          64.1365   90.2030   13.7306 C.ar    1  UNL1        0.0059
     21 C          64.8511   91.2322   12.9059 C.ar    1  UNL1        0.0335
     22 C          66.1113   91.8625   13.4204 C.ar    1  UNL1        0.0163
     23 C          66.8260   92.8917   12.5957 C.ar    1  UNL1        0.0805
     24 C          66.2804   93.2905   11.2565 C.ar    1  UNL1        0.3457
     25 O          66.9950   94.3197   10.4318 O.2     1  UNL1       -0.2445
     26 O          65.0203   92.6602   10.7421 O.2     1  UNL1       -0.4209
     27 C          64.3056   91.6310   11.5668 C.ar    1  UNL1        0.1515
     28 C          63.0455   91.0007   11.0524 C.ar    1  UNL1        0.0745
     29 C          66.6568   91.4637   14.7596 C.3     1  UNL1        0.1639
     30 O          68.1397   91.3957   14.9754 O.3     1  UNL1       -0.3772
     31 H          68.5136   90.6860   14.4299 H       1  UNL1        0.2109
@<TRIPOS>BOND
     1     9    10    1
     2    10    11    1
     3    11    12    1
     4    12    13    1
     5    13    14    1
     6    14    15    1
     7    14    16    1
     8    10     8    1
     9     8     2    1
    10     2     3   ar
    11     3     4   ar
    12     4     5   ar
    13     5     1    1
    14     1    17    1
    15    17    18    1
    16    18    19   ar
    17    19    20   ar
    18    20    21   ar
    19    21    22   ar
    20    22    29    1
    21    29    30    1
    22    22    23   ar
    23    23    24   ar
    24    24    25    2
    25    24    26   ar
    26    26    27   ar
    27    27    28   ar
    28     5     6   ar
    29     6     7   ar
    30     7     2   ar
    31    28    18   ar
    32    27    21   ar
    33    30    31    1
@<TRIPOS>MOLECULE
*****
 31 33 0 0 0
SMALL
GASTEIGER

@<TRIPOS>ATOM
      1 C          65.1350   91.3086   15.2525 C.3     1  UNL1        0.2320
      2 C          63.0659   89.1088   11.9164 C.ar    1  UNL1       -0.0062
      3 C          63.1739   90.6044   11.8749 C.ar    1  UNL1       -0.0031
      4 C          63.8636   91.3376   12.9869 C.ar    1  UNL1       -0.0010
      5 C          64.4453   90.5754   14.1404 C.ar    1  UNL1        0.0211
      6 C          64.3373   89.0798   14.1819 C.ar    1  UNL1       -0.0010
      7 C          63.6476   88.3466   13.0699 C.ar    1  UNL1       -0.0031
      8 C          62.3762   88.3756   10.8043 C.3     1  UNL1        0.0992
      9 C          59.8292   88.2054   11.2875 C.3     1  UNL1        0.0899
     10 N          61.1616   87.5444   11.0940 N.3     1  UNL1       -0.2677
     11 C          61.2796   86.0521   11.1902 C.3     1  UNL1        0.0726
     12 C          62.5645   85.3755   10.8147 C.3     1  UNL1        0.0231
     13 C          63.1196   84.2852   11.6825 C.3     1  UNL1        0.0737
     14 C          63.9628   83.2017   11.0782 C.3     1  UNL1        0.3186
     15 F          64.1206   83.1168    9.5889 F       1  UNL1       -0.1984
     16 F          64.6480   82.2031   11.9632 F       1  UNL1       -0.1984
     17 O          66.4084   92.0541   14.9828 O.3     1  UNL1       -0.4705
     18 C          66.6324   92.6970   13.6462 C.ar    1  UNL1        0.1421
     19 C          66.1251   94.0845   13.3868 C.ar    1  UNL1        0.0371
     20 C          66.3492   94.7274   12.0502 C.ar    1  UNL1        0.0059
     21 C          67.0806   93.9826   10.9730 C.ar    1  UNL1        0.0335
     22 C          67.3046   94.6255    9.6363 C.ar    1  UNL1        0.0163
     23 C          68.0360   93.8808    8.5591 C.ar    1  UNL1        0.0805
     24 C          68.5433   92.4932    8.8185 C.ar    1  UNL1        0.3457
     25 O          69.2747   91.7485    7.7412 O.2     1  UNL1       -0.2445
     26 O          68.3193   91.8504   10.1551 O.2     1  UNL1       -0.4209
     27 C          67.5879   92.5951   11.2323 C.ar    1  UNL1        0.1515
     28 C          67.3638   91.9523   12.5689 C.ar    1  UNL1        0.0745
     29 C          66.7973   96.0131    9.3770 C.3     1  UNL1        0.1639
     30 O          65.3787   96.2229    8.9368 O.3     1  UNL1       -0.3772
     31 H          65.2530   95.8369    8.0558 H       1  UNL1        0.2109
@<TRIPOS>BOND
     1     9    10    1
     2    10    11    1
     3    11    12    1
     4    12    13    1
     5    13    14    1
     6    14    15    1
     7    14    16    1
     8    10     8    1
     9     8     2    1
    10     2     3   ar
    11     3     4   ar
    12     4     5   ar
    13     5     1    1
    14     1    17    1
    15    17    18    1
    16    18    19   ar
    17    19    20   ar
    18    20    21   ar
    19    21    22   ar
    20    22    29    1
    21    29    30    1
    22    22    23   ar
    23    23    24   ar
    24    24    25    2
    25    24    26   ar
    26    26    27   ar
    27    27    28   ar
    28     5     6   ar
    29     6     7   ar
    30     7     2   ar
    31    28    18   ar
    32    27    21   ar
    33    30    31    1
@<TRIPOS>MOLECULE
*****
 31 33 0 0 0
SMALL
GASTEIGER

@<TRIPOS>ATOM
      1 C          63.8113   82.4231   10.8461 C.3     1  UNL1        0.2320
      2 C          63.4896   84.0862   15.0151 C.ar    1  UNL1       -0.0062
      3 C          64.7217   84.3418   14.1987 C.ar    1  UNL1       -0.0031
      4 C          64.8290   83.7875   12.8090 C.ar    1  UNL1       -0.0010
      5 C          63.7041   82.9775   12.2358 C.ar    1  UNL1        0.0211
      6 C          62.4720   82.7220   13.0522 C.ar    1  UNL1       -0.0010
      7 C          62.3647   83.2763   14.4419 C.ar    1  UNL1       -0.0031
      8 C          63.3824   84.6406   16.4048 C.3     1  UNL1        0.0992
      9 C          62.5968   86.6673   17.8279 C.3     1  UNL1        0.0899
     10 N          63.2934   86.1230   16.6161 N.3     1  UNL1       -0.2677
     11 C          63.9010   87.0610   15.6157 C.3     1  UNL1        0.0726
     12 C          63.5908   88.5273   15.6776 C.3     1  UNL1        0.0231
     13 C          64.2642   89.4769   14.7317 C.3     1  UNL1        0.0737
     14 C          63.8660   89.5037   13.2857 C.3     1  UNL1        0.3186
     15 F          63.6513   90.8157   12.5911 F       1  UNL1       -0.1984
     16 F          63.6824   88.2185   12.5344 F       1  UNL1       -0.1984
     17 O          63.9904   83.3502    9.6806 O.3     1  UNL1       -0.4705
     18 C          63.0298   84.4826    9.4684 C.ar    1  UNL1        0.1421
     19 C          62.5941   84.8464    8.0800 C.ar    1  UNL1        0.0371
     20 C          61.6336   85.9788    7.8680 C.ar    1  UNL1        0.0059
     21 C          61.1086   86.7473    9.0443 C.ar    1  UNL1        0.0335
     22 C          60.1480   87.8797    8.8322 C.ar    1  UNL1        0.0163
     23 C          59.6231   88.6483   10.0086 C.ar    1  UNL1        0.0805
     24 C          60.0588   88.2844   11.3970 C.ar    1  UNL1        0.3457
     25 O          59.5339   89.0529   12.5734 O.2     1  UNL1       -0.2445
     26 O          61.0194   87.1520   11.6091 O.2     1  UNL1       -0.4209
     27 C          61.5443   86.3835   10.4327 C.ar    1  UNL1        0.1515
     28 C          62.5049   85.2511   10.6448 C.ar    1  UNL1        0.0745
     29 C          59.7124   88.2436    7.4438 C.3     1  UNL1        0.1639
     30 O          59.7172   89.6790    7.0081 O.3     1  UNL1       -0.3772
     31 H          59.0588   90.1744    7.5199 H       1  UNL1        0.2109
@<TRIPOS>BOND
     1     9    10    1
     2    10    11    1
     3    11    12    1
     4    12    13    1
     5    13    14    1
     6    14    15    1
     7    14    16    1
     8    10     8    1
     9     8     2    1
    10     2     3   ar
    11     3     4   ar
    12     4     5   ar
    13     5     1    1
    14     1    17    1
    15    17    18    1
    16    18    19   ar
    17    19    20   ar
    18    20    21   ar
    19    21    22   ar
    20    22    29    1
    21    29    30    1
    22    22    23   ar
    23    23    24   ar
    24    24    25    2
    25    24    26   ar
    26    26    27   ar
    27    27    28   ar
    28     5     6   ar
    29     6     7   ar
    30     7     2   ar
    31    28    18   ar
    32    27    21   ar
    33    30    31    1
