@<TRIPOS>MOLECULE
*****
 25 27 0 0 0
SMALL
GASTEIGER

@<TRIPOS>ATOM
      1 C          63.5463   90.8932   12.4532 C.3     1  UNL1        0.0731
      2 C          64.6862   91.8257   12.1682 C.ar    1  UNL1       -0.0130
      3 C          64.9122   92.3296   10.7735 C.ar    1  UNL1        0.0168
      4 C          66.0520   93.2621   10.4885 C.ar    1  UNL1        0.0986
      5 N          66.9659   93.6907   11.5981 N.ar    1  UNL1       -0.2423
      6 C          66.7398   93.1868   12.9928 C.ar    1  UNL1        0.0986
      7 C          65.6000   92.2543   13.2778 C.ar    1  UNL1        0.0168
      8 C          63.5400   90.0797   13.7134 C.ar    1  UNL1        0.0588
      9 C          64.0557   88.6789   13.8611 C.ar    1  UNL1        0.1134
     10 N          63.8513   88.2576   15.2861 N.ar    1  UNL1       -0.2229
     11 C          63.2093   89.3980   16.0192 C.ar    1  UNL1        0.1748
     12 N          63.0169   90.5241   15.0472 N.ar    1  UNL1       -0.3379
     13 H          62.6175   91.4010   15.2491 H       1  UNL1        0.1672
     14 C          62.4128   90.7743   11.4781 C.3     1  UNL1        0.0724
     15 S          61.4212   89.6570   11.6133 S.3     1  UNL1       -0.1129
     16 C          61.1708   86.4746    8.4416 C.ar    1  UNL1        0.0715
     17 C          62.2356   86.4010    9.4956 C.ar    1  UNL1        0.0044
     18 C          62.3190   87.4618   10.5528 C.ar    1  UNL1        0.0061
     19 C          61.3377   88.5962   10.5561 C.ar    1  UNL1        0.0252
     20 C          60.2730   88.6698    9.5021 C.ar    1  UNL1        0.0061
     21 C          60.1895   87.6090    8.4449 C.ar    1  UNL1        0.0044
     22 F          61.0040   84.3530    6.3272 F       1  UNL1       -0.1659
     23 C          61.0874   85.4138    7.3844 C.3     1  UNL1        0.4186
     24 F          59.6078   85.6363    7.2779 F       1  UNL1       -0.1659
     25 F          62.5670   85.1912    7.4909 F       1  UNL1       -0.1659
@<TRIPOS>BOND
     1    22    23    1
     2    23    24    1
     3    23    25    1
     4    23    16    1
     5    16    17   ar
     6    17    18   ar
     7    18    19   ar
     8    19    15    1
     9    15    14    1
    10    14     1    1
    11     1     2    1
    12     2     3   ar
    13     3     4   ar
    14     4     5   ar
    15     5     6   ar
    16     6     7   ar
    17     1     8    1
    18     8     9   ar
    19     9    10   ar
    20    10    11   ar
    21    11    12   ar
    22    19    20   ar
    23    20    21   ar
    24    21    16   ar
    25     7     2   ar
    26    12     8   ar
    27    12    13    1
@<TRIPOS>MOLECULE
*****
 25 27 0 0 0
SMALL
GASTEIGER

@<TRIPOS>ATOM
      1 C          64.3341   90.5367   13.4142 C.3     1  UNL1        0.0731
      2 C          64.0188   89.4999   14.4514 C.ar    1  UNL1       -0.0130
      3 C          63.3670   89.9030   15.7408 C.ar    1  UNL1        0.0168
      4 C          63.0517   88.8663   16.7781 C.ar    1  UNL1        0.0986
      5 N          63.3882   87.4265   16.5259 N.ar    1  UNL1       -0.2423
      6 C          64.0400   87.0234   15.2364 C.ar    1  UNL1        0.0986
      7 C          64.3553   88.0601   14.1992 C.ar    1  UNL1        0.0168
      8 C          65.4794   91.4824   13.6230 C.ar    1  UNL1        0.0588
      9 C          65.7289   92.7478   12.8571 C.ar    1  UNL1        0.1134
     10 N          66.9800   93.3763   13.3951 N.ar    1  UNL1       -0.2229
     11 C          67.5039   92.4994   14.4936 C.ar    1  UNL1        0.1748
     12 N          66.5765   91.3289   14.6344 N.ar    1  UNL1       -0.3379
     13 H          66.6711   90.5897   15.2778 H       1  UNL1        0.1672
     14 C          63.5040   90.6275   12.1681 C.3     1  UNL1        0.0724
     15 S          62.1275   90.0322   12.1388 S.3     1  UNL1       -0.1129
     16 C          61.0442   87.0235    8.9727 C.ar    1  UNL1        0.0715
     17 C          60.4506   88.4005    8.9333 C.ar    1  UNL1        0.0044
     18 C          60.8117   89.4034    9.9887 C.ar    1  UNL1        0.0061
     19 C          61.7664   89.0293   11.0834 C.ar    1  UNL1        0.0252
     20 C          62.3601   87.6524   11.1228 C.ar    1  UNL1        0.0061
     21 C          61.9990   86.6495   10.0675 C.ar    1  UNL1        0.0044
     22 F          60.3221   85.0177    6.8620 F       1  UNL1       -0.1659
     23 C          60.6832   86.0206    7.9173 C.3     1  UNL1        0.4186
     24 F          62.1267   85.6325    7.7923 F       1  UNL1       -0.1659
     25 F          59.2397   86.4088    8.0424 F       1  UNL1       -0.1659
@<TRIPOS>BOND
     1    22    23    1
     2    23    24    1
     3    23    25    1
     4    23    16    1
     5    16    17   ar
     6    17    18   ar
     7    18    19   ar
     8    19    15    1
     9    15    14    1
    10    14     1    1
    11     1     2    1
    12     2     3   ar
    13     3     4   ar
    14     4     5   ar
    15     5     6   ar
    16     6     7   ar
    17     1     8    1
    18     8     9   ar
    19     9    10   ar
    20    10    11   ar
    21    11    12   ar
    22    19    20   ar
    23    20    21   ar
    24    21    16   ar
    25     7     2   ar
    26    12     8   ar
    27    12    13    1
@<TRIPOS>MOLECULE
*****
 25 27 0 0 0
SMALL
GASTEIGER

@<TRIPOS>ATOM
      1 C          64.2563   90.5867   13.4344 C.3     1  UNL1        0.0731
      2 C          63.9790   89.5201   14.4521 C.ar    1  UNL1       -0.0130
      3 C          64.3596   88.0970   14.1698 C.ar    1  UNL1        0.0168
      4 C          64.0822   87.0304   15.1874 C.ar    1  UNL1        0.0986
      5 N          63.4242   87.3871   16.4874 N.ar    1  UNL1       -0.2423
      6 C          63.0436   88.8103   16.7697 C.ar    1  UNL1        0.0986
      7 C          63.3210   89.8768   15.7520 C.ar    1  UNL1        0.0168
      8 C          65.3262   91.6066   13.6895 C.ar    1  UNL1        0.0588
      9 C          65.7848   92.6627   12.7280 C.ar    1  UNL1        0.1134
     10 N          66.8673   93.4583   13.3950 N.ar    1  UNL1       -0.2229
     11 C          67.0779   92.8940   14.7688 C.ar    1  UNL1        0.1748
     12 N          66.1254   91.7496   14.9508 N.ar    1  UNL1       -0.3379
     13 H          66.0398   91.1905   15.7566 H       1  UNL1        0.1672
     14 C          63.4638   90.6333   12.1618 C.3     1  UNL1        0.0724
     15 S          62.0799   90.0563   12.1185 S.3     1  UNL1       -0.1129
     16 C          61.0000   87.0334    8.9648 C.ar    1  UNL1        0.0715
     17 C          60.4228   88.4166    8.9068 C.ar    1  UNL1        0.0044
     18 C          60.7827   89.4243    9.9580 C.ar    1  UNL1        0.0061
     19 C          61.7199   89.0487   11.0673 C.ar    1  UNL1        0.0252
     20 C          62.2972   87.6655   11.1253 C.ar    1  UNL1        0.0061
     21 C          61.9373   86.6578   10.0740 C.ar    1  UNL1        0.0044
     22 F          60.2801   85.0181    6.8623 F       1  UNL1       -0.1659
     23 C          60.6401   86.0258    7.9135 C.3     1  UNL1        0.4186
     24 F          59.1937   86.3986    8.0515 F       1  UNL1       -0.1659
     25 F          62.0865   85.6530    7.7756 F       1  UNL1       -0.1659
@<TRIPOS>BOND
     1    22    23    1
     2    23    24    1
     3    23    25    1
     4    23    16    1
     5    16    17   ar
     6    17    18   ar
     7    18    19   ar
     8    19    15    1
     9    15    14    1
    10    14     1    1
    11     1     2    1
    12     2     3   ar
    13     3     4   ar
    14     4     5   ar
    15     5     6   ar
    16     6     7   ar
    17     1     8    1
    18     8     9   ar
    19     9    10   ar
    20    10    11   ar
    21    11    12   ar
    22    19    20   ar
    23    20    21   ar
    24    21    16   ar
    25     7     2   ar
    26    12     8   ar
    27    12    13    1
@<TRIPOS>MOLECULE
*****
 25 27 0 0 0
SMALL
GASTEIGER

@<TRIPOS>ATOM
      1 C          61.3615   87.6657   10.1772 C.3     1  UNL1        0.0731
      2 C          62.0860   86.3554   10.2695 C.ar    1  UNL1       -0.0130
      3 C          62.6889   85.7435    9.0398 C.ar    1  UNL1        0.0168
      4 C          63.4134   84.4333    9.1321 C.ar    1  UNL1        0.0986
      5 N          63.5349   83.7350   10.4540 N.ar    1  UNL1       -0.2423
      6 C          62.9320   84.3469   11.6837 C.ar    1  UNL1        0.0986
      7 C          62.2076   85.6571   11.5914 C.ar    1  UNL1        0.0168
      8 C          60.3979   87.9124    9.0545 C.ar    1  UNL1        0.0588
      9 C          59.4270   86.9174    8.4913 C.ar    1  UNL1        0.1134
     10 N          58.6650   87.5875    7.3866 N.ar    1  UNL1       -0.2229
     11 C          59.1650   88.9967    7.2671 C.ar    1  UNL1        0.1748
     12 N          60.2360   89.1975    8.2979 N.ar    1  UNL1       -0.3379
     13 H          60.7436   90.0270    8.4510 H       1  UNL1        0.1672
     14 C          61.6007   88.7291   11.2077 C.3     1  UNL1        0.0724
     15 S          62.5426   89.8591   10.9146 S.3     1  UNL1       -0.1129
     16 C          65.3956   91.2905   14.0866 C.ar    1  UNL1        0.0715
     17 C          64.6404   90.0091   14.2801 C.ar    1  UNL1        0.0044
     18 C          63.6894   89.5319   13.2228 C.ar    1  UNL1        0.0061
     19 C          63.4936   90.3363   11.9719 C.ar    1  UNL1        0.0252
     20 C          64.2487   91.6177   11.7784 C.ar    1  UNL1        0.0061
     21 C          65.1997   92.0949   12.8357 C.ar    1  UNL1        0.0044
     22 F          67.2975   92.2448   16.2012 F       1  UNL1       -0.1659
     23 C          66.3466   91.7677   15.1439 C.3     1  UNL1        0.4186
     24 F          67.5062   91.3416   14.2932 F       1  UNL1       -0.1659
     25 F          65.1869   92.1938   15.9946 F       1  UNL1       -0.1659
@<TRIPOS>BOND
     1    22    23    1
     2    23    24    1
     3    23    25    1
     4    23    16    1
     5    16    17   ar
     6    17    18   ar
     7    18    19   ar
     8    19    15    1
     9    15    14    1
    10    14     1    1
    11     1     2    1
    12     2     3   ar
    13     3     4   ar
    14     4     5   ar
    15     5     6   ar
    16     6     7   ar
    17     1     8    1
    18     8     9   ar
    19     9    10   ar
    20    10    11   ar
    21    11    12   ar
    22    19    20   ar
    23    20    21   ar
    24    21    16   ar
    25     7     2   ar
    26    12     8   ar
    27    12    13    1
@<TRIPOS>MOLECULE
*****
 25 27 0 0 0
SMALL
GASTEIGER

@<TRIPOS>ATOM
      1 C          61.3470   87.6716   10.1644 C.3     1  UNL1        0.0731
      2 C          62.0796   86.3654   10.2497 C.ar    1  UNL1       -0.0130
      3 C          62.2133   85.6653   11.5695 C.ar    1  UNL1        0.0168
      4 C          62.9459   84.3591   11.6547 C.ar    1  UNL1        0.0986
      5 N          63.5447   83.7531   10.4202 N.ar    1  UNL1       -0.2423
      6 C          63.4110   84.4533    9.1003 C.ar    1  UNL1        0.0986
      7 C          62.6784   85.7594    9.0151 C.ar    1  UNL1        0.0168
      8 C          60.3914   87.9233    9.0359 C.ar    1  UNL1        0.0588
      9 C          59.4127   86.9361    8.4726 C.ar    1  UNL1        0.1134
     10 N          58.6631   87.6090    7.3612 N.ar    1  UNL1       -0.2229
     11 C          59.1787   89.0123    7.2375 C.ar    1  UNL1        0.1748
     12 N          60.2468   89.2065    8.2726 N.ar    1  UNL1       -0.3379
     13 H          60.7624   90.0313    8.4243 H       1  UNL1        0.1672
     14 C          61.5700   88.7261   11.2076 C.3     1  UNL1        0.0724
     15 S          62.4810   89.8830   10.9219 S.3     1  UNL1       -0.1129
     16 C          65.4220   91.2544   14.0396 C.ar    1  UNL1        0.0715
     17 C          65.2390   92.0486   12.7803 C.ar    1  UNL1        0.0044
     18 C          64.2587   91.5914   11.7411 C.ar    1  UNL1        0.0061
     19 C          63.4613   90.3401   11.9612 C.ar    1  UNL1        0.0252
     20 C          63.6443   89.5460   13.2204 C.ar    1  UNL1        0.0061
     21 C          64.6246   90.0032   14.2597 C.ar    1  UNL1        0.0044
     22 F          67.3826   92.1687   16.1181 F       1  UNL1       -0.1659
     23 C          66.4023   91.7116   15.0788 C.3     1  UNL1        0.4186
     24 F          67.5328   91.4453   14.1296 F       1  UNL1       -0.1659
     25 F          65.2718   91.9779   16.0281 F       1  UNL1       -0.1659
@<TRIPOS>BOND
     1    22    23    1
     2    23    24    1
     3    23    25    1
     4    23    16    1
     5    16    17   ar
     6    17    18   ar
     7    18    19   ar
     8    19    15    1
     9    15    14    1
    10    14     1    1
    11     1     2    1
    12     2     3   ar
    13     3     4   ar
    14     4     5   ar
    15     5     6   ar
    16     6     7   ar
    17     1     8    1
    18     8     9   ar
    19     9    10   ar
    20    10    11   ar
    21    11    12   ar
    22    19    20   ar
    23    20    21   ar
    24    21    16   ar
    25     7     2   ar
    26    12     8   ar
    27    12    13    1
@<TRIPOS>MOLECULE
*****
 25 27 0 0 0
SMALL
GASTEIGER

@<TRIPOS>ATOM
      1 C          61.9482   86.6828   10.8664 C.3     1  UNL1        0.0731
      2 C          61.7602   86.1438    9.4792 C.ar    1  UNL1       -0.0130
      3 C          60.4303   86.2739    8.7978 C.ar    1  UNL1        0.0168
      4 C          60.2423   85.7349    7.4106 C.ar    1  UNL1        0.0986
      5 N          61.3843   85.0658    6.7049 N.ar    1  UNL1       -0.2423
      6 C          62.7143   84.9357    7.3863 C.ar    1  UNL1        0.0986
      7 C          62.9022   85.4747    8.7734 C.ar    1  UNL1        0.0168
      8 C          62.5940   85.8328   11.9201 C.ar    1  UNL1        0.0588
      9 C          62.6004   84.3334   11.9618 C.ar    1  UNL1        0.1134
     10 N          63.3573   83.9069   13.1846 N.ar    1  UNL1       -0.2229
     11 C          63.8186   85.1427   13.8987 C.ar    1  UNL1        0.1748
     12 N          63.3469   86.3330   13.1172 N.ar    1  UNL1       -0.3379
     13 H          63.5039   87.2768   13.3492 H       1  UNL1        0.1672
     14 C          61.4902   88.0717   11.1998 C.3     1  UNL1        0.0724
     15 S          62.0667   89.2474   10.4681 S.3     1  UNL1       -0.1129
     16 C          64.9934   91.9696   12.5355 C.ar    1  UNL1        0.0715
     17 C          64.6154   92.2218   11.1060 C.ar    1  UNL1        0.0044
     18 C          63.6399   91.3143   10.4168 C.ar    1  UNL1        0.0061
     19 C          63.0423   90.1548   11.1572 C.ar    1  UNL1        0.0252
     20 C          63.4202   89.9026   12.5867 C.ar    1  UNL1        0.0061
     21 C          64.3957   90.8101   13.2759 C.ar    1  UNL1        0.0044
     22 F          66.9444   93.7845   13.9137 F       1  UNL1       -0.1659
     23 C          65.9689   92.8771   13.2246 C.3     1  UNL1        0.4186
     24 F          66.2107   91.8256   14.2668 F       1  UNL1       -0.1659
     25 F          65.7271   93.9285   12.1825 F       1  UNL1       -0.1659
@<TRIPOS>BOND
     1    22    23    1
     2    23    24    1
     3    23    25    1
     4    23    16    1
     5    16    17   ar
     6    17    18   ar
     7    18    19   ar
     8    19    15    1
     9    15    14    1
    10    14     1    1
    11     1     2    1
    12     2     3   ar
    13     3     4   ar
    14     4     5   ar
    15     5     6   ar
    16     6     7   ar
    17     1     8    1
    18     8     9   ar
    19     9    10   ar
    20    10    11   ar
    21    11    12   ar
    22    19    20   ar
    23    20    21   ar
    24    21    16   ar
    25     7     2   ar
    26    12     8   ar
    27    12    13    1
@<TRIPOS>MOLECULE
*****
 25 27 0 0 0
SMALL
GASTEIGER

@<TRIPOS>ATOM
      1 C          64.0155   88.3185   14.0521 C.3     1  UNL1        0.0731
      2 C          63.3677   88.4073   12.7021 C.ar    1  UNL1       -0.0130
      3 C          63.2615   89.7321   12.0068 C.ar    1  UNL1        0.0168
      4 C          62.6137   89.8208   10.6567 C.ar    1  UNL1        0.0986
      5 N          62.0722   88.5847   10.0020 N.ar    1  UNL1       -0.2423
      6 C          62.1784   87.2598   10.6974 C.ar    1  UNL1        0.0986
      7 C          62.8261   87.1711   12.0474 C.ar    1  UNL1        0.0168
      8 C          63.9973   89.5032   14.9720 C.ar    1  UNL1        0.0588
      9 C          63.1566   89.6486   16.2057 C.ar    1  UNL1        0.1134
     10 N          63.4563   90.9857   16.8159 N.ar    1  UNL1       -0.2229
     11 C          64.4824   91.6666   15.9593 C.ar    1  UNL1        0.1748
     12 N          64.8167   90.7504   14.8198 N.ar    1  UNL1       -0.3379
     13 H          65.4608   90.9351   14.0985 H       1  UNL1        0.1672
     14 C          64.6814   87.0451   14.4822 C.3     1  UNL1        0.0724
     15 S          63.8935   85.9942   15.2065 S.3     1  UNL1       -0.1129
     16 C          63.0689   82.0374   13.2281 C.ar    1  UNL1        0.0715
     17 C          64.1124   82.9552   12.6636 C.ar    1  UNL1        0.0044
     18 C          64.3873   84.2741   13.3230 C.ar    1  UNL1        0.0061
     19 C          63.6186   84.6753   14.5470 C.ar    1  UNL1        0.0252
     20 C          62.5751   83.7575   15.1116 C.ar    1  UNL1        0.0061
     21 C          62.3003   82.4386   14.4521 C.ar    1  UNL1        0.0044
     22 F          62.5193   79.3995   11.9092 F       1  UNL1       -0.1659
     23 C          62.7941   80.7185   12.5687 C.3     1  UNL1        0.4186
     24 F          62.4347   80.1278   13.8998 F       1  UNL1       -0.1659
     25 F          63.1535   81.3092   11.2375 F       1  UNL1       -0.1659
@<TRIPOS>BOND
     1    22    23    1
     2    23    24    1
     3    23    25    1
     4    23    16    1
     5    16    17   ar
     6    17    18   ar
     7    18    19   ar
     8    19    15    1
     9    15    14    1
    10    14     1    1
    11     1     2    1
    12     2     3   ar
    13     3     4   ar
    14     4     5   ar
    15     5     6   ar
    16     6     7   ar
    17     1     8    1
    18     8     9   ar
    19     9    10   ar
    20    10    11   ar
    21    11    12   ar
    22    19    20   ar
    23    20    21   ar
    24    21    16   ar
    25     7     2   ar
    26    12     8   ar
    27    12    13    1
@<TRIPOS>MOLECULE
*****
 25 27 0 0 0
SMALL
GASTEIGER

@<TRIPOS>ATOM
      1 C          64.5185   90.5251   13.9228 C.3     1  UNL1        0.0731
      2 C          65.6544   91.4250   14.3101 C.ar    1  UNL1       -0.0130
      3 C          65.6920   92.0389   15.6782 C.ar    1  UNL1        0.0168
      4 C          66.8280   92.9388   16.0654 C.ar    1  UNL1        0.0986
      5 N          67.9262   93.2248   15.0845 N.ar    1  UNL1       -0.2423
      6 C          67.8885   92.6109   13.7164 C.ar    1  UNL1        0.0986
      7 C          66.7526   91.7110   13.3292 C.ar    1  UNL1        0.0168
      8 C          64.0287   89.4806   14.8816 C.ar    1  UNL1        0.0588
      9 C          64.2594   88.0027   14.7688 C.ar    1  UNL1        0.1134
     10 N          63.5956   87.3393   15.9389 N.ar    1  UNL1       -0.2229
     11 C          62.9545   88.4072   16.7749 C.ar    1  UNL1        0.1748
     12 N          63.2222   89.7305   16.1214 N.ar    1  UNL1       -0.3379
     13 H          62.9215   90.6089   16.4487 H       1  UNL1        0.1672
     14 C          63.8724   90.6697   12.5769 C.3     1  UNL1        0.0724
     15 S          62.3992   90.4333   12.4228 S.3     1  UNL1       -0.1129
     16 C          60.9012   87.4712    9.3844 C.ar    1  UNL1        0.0715
     17 C          62.0200   87.0953   10.3101 C.ar    1  UNL1        0.0044
     18 C          62.5193   88.0827   11.3229 C.ar    1  UNL1        0.0061
     19 C          61.8998   89.4459   11.4100 C.ar    1  UNL1        0.0252
     20 C          60.7810   89.8219   10.4844 C.ar    1  UNL1        0.0061
     21 C          60.2817   88.8345    9.4716 C.ar    1  UNL1        0.0044
     22 F          59.9025   85.4965    7.3588 F       1  UNL1       -0.1659
     23 C          60.4018   86.4839    8.3716 C.3     1  UNL1        0.4186
     24 F          61.8056   86.0062    8.1452 F       1  UNL1       -0.1659
     25 F          58.9981   86.9616    8.5980 F       1  UNL1       -0.1659
@<TRIPOS>BOND
     1    22    23    1
     2    23    24    1
     3    23    25    1
     4    23    16    1
     5    16    17   ar
     6    17    18   ar
     7    18    19   ar
     8    19    15    1
     9    15    14    1
    10    14     1    1
    11     1     2    1
    12     2     3   ar
    13     3     4   ar
    14     4     5   ar
    15     5     6   ar
    16     6     7   ar
    17     1     8    1
    18     8     9   ar
    19     9    10   ar
    20    10    11   ar
    21    11    12   ar
    22    19    20   ar
    23    20    21   ar
    24    21    16   ar
    25     7     2   ar
    26    12     8   ar
    27    12    13    1
@<TRIPOS>MOLECULE
*****
 25 27 0 0 0
SMALL
GASTEIGER

@<TRIPOS>ATOM
      1 C          63.0143   89.3702   12.5372 C.3     1  UNL1        0.0731
      2 C          63.9665   90.4282   13.0107 C.ar    1  UNL1       -0.0130
      3 C          64.3944   91.5232   12.0792 C.ar    1  UNL1        0.0168
      4 C          65.3467   92.5812   12.5526 C.ar    1  UNL1        0.0986
      5 N          65.8709   92.5440   13.9575 N.ar    1  UNL1       -0.2423
      6 C          65.4429   91.4489   14.8890 C.ar    1  UNL1        0.0986
      7 C          64.4907   90.3910   14.4156 C.ar    1  UNL1        0.0168
      8 C          61.6955   89.7614   11.9391 C.ar    1  UNL1        0.0588
      9 C          61.4703   90.2330   10.5331 C.ar    1  UNL1        0.1134
     10 N          60.0060   90.5128   10.3670 N.ar    1  UNL1       -0.2229
     11 C          59.3262   90.2140   11.6704 C.ar    1  UNL1        0.1748
     12 N          60.3704   89.7496   12.6420 N.ar    1  UNL1       -0.3379
     13 H          60.2136   89.4838   13.5768 H       1  UNL1        0.1672
     14 C          63.3809   87.9210   12.6620 C.3     1  UNL1        0.0724
     15 S          62.7467   86.9064   11.7574 S.3     1  UNL1       -0.1129
     16 C          62.6947   82.5633   12.9342 C.ar    1  UNL1        0.0715
     17 C          62.7244   82.9473   11.4845 C.ar    1  UNL1        0.0044
     18 C          62.7418   84.3949   11.0922 C.ar    1  UNL1        0.0061
     19 C          62.7294   85.4587   12.1497 C.ar    1  UNL1        0.0252
     20 C          62.6997   85.0748   13.5994 C.ar    1  UNL1        0.0061
     21 C          62.6823   83.6271   13.9916 C.ar    1  UNL1        0.0044
     22 F          62.6600   79.6680   13.7188 F       1  UNL1       -0.1659
     23 C          62.6773   81.1156   13.3265 C.3     1  UNL1        0.4186
     24 F          64.1664   81.0520   13.1574 F       1  UNL1       -0.1659
     25 F          61.1883   81.1793   13.4957 F       1  UNL1       -0.1659
@<TRIPOS>BOND
     1    22    23    1
     2    23    24    1
     3    23    25    1
     4    23    16    1
     5    16    17   ar
     6    17    18   ar
     7    18    19   ar
     8    19    15    1
     9    15    14    1
    10    14     1    1
    11     1     2    1
    12     2     3   ar
    13     3     4   ar
    14     4     5   ar
    15     5     6   ar
    16     6     7   ar
    17     1     8    1
    18     8     9   ar
    19     9    10   ar
    20    10    11   ar
    21    11    12   ar
    22    19    20   ar
    23    20    21   ar
    24    21    16   ar
    25     7     2   ar
    26    12     8   ar
    27    12    13    1
