@<TRIPOS>MOLECULE
*****
 26 29 0 0 0
SMALL
GASTEIGER

@<TRIPOS>ATOM
      1 N          68.5394   93.4885   14.5915 N.pl3   1  UNL1       -0.3380
      2 C          67.3424   92.7172   14.1199 C.2     1  UNL1        0.1482
      3 N          66.7706   92.9787   12.7581 N.2     1  UNL1       -0.2484
      4 C          65.5737   92.2074   12.2865 C.3     1  UNL1        0.1352
      5 C          65.0019   92.4689   10.9246 C.3     1  UNL1        0.1692
      6 O          63.8049   91.6976   10.4530 O.3     1  UNL1       -0.3446
      7 C          63.1797   90.6648   11.3433 C.3     1  UNL1        0.1910
      8 C          63.7515   90.4034   12.7051 C.3     1  UNL1        0.0423
      9 C          64.9485   91.1746   13.1767 C.3     1  UNL1        0.0412
     10 C          65.5203   90.9132   14.5385 C.3     1  UNL1        0.0672
     11 S          66.7173   91.6845   15.0101 S.3     1  UNL1       -0.0807
     12 H          68.9497   94.1663   14.0072 H       1  UNL1        0.1442
     13 H          68.9147   93.3169   15.4853 H       1  UNL1        0.1442
     14 C          66.1988   93.2402   11.3962 C.ar    1  UNL1        0.0278
     15 C          65.7727   94.6748   11.4976 C.ar    1  UNL1        0.0021
     16 C          66.3979   95.7076   10.6072 C.ar    1  UNL1        0.0295
     17 C          67.4491   95.3057    9.6156 C.ar    1  UNL1        0.1424
     18 F          68.0743   96.3384    8.7253 F       1  UNL1       -0.2041
     19 C          67.8752   93.8710    9.5142 C.ar    1  UNL1        0.0590
     20 C          67.2500   92.8383   10.4045 C.ar    1  UNL1        0.1402
     21 F          67.6761   91.4036   10.3031 F       1  UNL1       -0.2044
     22 C          61.9828   89.8935   10.8717 C.ar    1  UNL1        0.2331
     23 N          61.2288   88.8656   11.6623 N.ar    1  UNL1       -0.2083
     24 C          60.1096   88.3515   10.8059 C.ar    1  UNL1        0.1424
     25 C          60.1720   89.0617    9.4861 C.ar    1  UNL1        0.2019
     26 O          61.3296   90.0147    9.5268 O.2     1  UNL1       -0.4327
@<TRIPOS>BOND
     1     1     2    1
     2     2     3    2
     3     3     4    1
     4     4    14    1
     5    14    15   ar
     6    15    16   ar
     7    16    17   ar
     8    17    18    1
     9    17    19   ar
    10    19    20   ar
    11    20    21    1
    12     4     5    1
    13     5     6    1
    14     6     7    1
    15     7    22    1
    16    22    23   ar
    17    23    24   ar
    18    24    25   ar
    19    25    26   ar
    20     7     8    1
    21     9     8    1
    22     9    10    1
    23    10    11    1
    24    11     2    1
    25     9     4    1
    26    20    14   ar
    27    26    22   ar
    28     1    12    1
    29     1    13    1
@<TRIPOS>MOLECULE
*****
 26 29 0 0 0
SMALL
GASTEIGER

@<TRIPOS>ATOM
      1 N          62.0170   89.2097   15.9731 N.pl3   1  UNL1       -0.3380
      2 C          62.9404   90.0377   15.1296 C.2     1  UNL1        0.1482
      3 N          62.7806   90.0554   13.6382 N.2     1  UNL1       -0.2484
      4 C          63.7041   90.8834   12.7947 C.3     1  UNL1        0.1352
      5 C          63.5442   90.9010   11.3033 C.3     1  UNL1        0.1692
      6 O          64.4677   91.7290   10.4597 O.3     1  UNL1       -0.3446
      7 C          65.5510   92.5395   11.1076 C.3     1  UNL1        0.1910
      8 C          65.7108   92.5219   12.5989 C.3     1  UNL1        0.0423
      9 C          64.7874   91.6938   13.4425 C.3     1  UNL1        0.0412
     10 C          64.9472   91.6762   14.9338 C.3     1  UNL1        0.0672
     11 S          64.0237   90.8482   15.7773 S.3     1  UNL1       -0.0807
     12 H          61.3060   88.6778   15.5479 H       1  UNL1        0.1442
     13 H          62.1219   89.1981   16.9519 H       1  UNL1        0.1442
     14 C          62.6207   90.0729   12.1468 C.ar    1  UNL1        0.0278
     15 C          61.3974   90.7521   11.6063 C.ar    1  UNL1        0.0021
     16 C          60.3141   89.9416   10.9585 C.ar    1  UNL1        0.0295
     17 C          60.4542   88.4520   10.8512 C.ar    1  UNL1        0.1424
     18 F          59.3709   87.6416   10.2033 F       1  UNL1       -0.2041
     19 C          61.6776   87.7729   11.3917 C.ar    1  UNL1        0.0590
     20 C          62.7608   88.5834   12.0395 C.ar    1  UNL1        0.1402
     21 F          63.9842   87.9042   12.5801 F       1  UNL1       -0.2044
     22 C          66.4744   93.3675   10.2640 C.ar    1  UNL1        0.2331
     23 N          66.3660   94.8449   10.0277 N.ar    1  UNL1       -0.2083
     24 C          67.4931   95.2540    9.1263 C.ar    1  UNL1        0.1424
     25 C          68.2980   94.0296    8.8055 C.ar    1  UNL1        0.2019
     26 O          67.6684   92.8637    9.5087 O.2     1  UNL1       -0.4327
@<TRIPOS>BOND
     1     1     2    1
     2     2     3    2
     3     3     4    1
     4     4    14    1
     5    14    15   ar
     6    15    16   ar
     7    16    17   ar
     8    17    18    1
     9    17    19   ar
    10    19    20   ar
    11    20    21    1
    12     4     5    1
    13     5     6    1
    14     6     7    1
    15     7    22    1
    16    22    23   ar
    17    23    24   ar
    18    24    25   ar
    19    25    26   ar
    20     7     8    1
    21     9     8    1
    22     9    10    1
    23    10    11    1
    24    11     2    1
    25     9     4    1
    26    20    14   ar
    27    26    22   ar
    28     1    12    1
    29     1    13    1
@<TRIPOS>MOLECULE
*****
 26 29 0 0 0
SMALL
GASTEIGER

@<TRIPOS>ATOM
      1 N          59.7694   85.7601    7.6521 N.pl3   1  UNL1       -0.3380
      2 C          60.3522   86.7014    8.6642 C.2     1  UNL1        0.1482
      3 N          61.3653   86.2059    9.6531 N.2     1  UNL1       -0.2484
      4 C          61.9481   87.1472   10.6652 C.3     1  UNL1        0.1352
      5 C          62.9613   86.6517   11.6542 C.3     1  UNL1        0.1692
      6 O          63.5441   87.5930   12.6663 O.3     1  UNL1       -0.3446
      7 C          63.1137   89.0298   12.6894 C.3     1  UNL1        0.1910
      8 C          62.1006   89.5253   11.7004 C.3     1  UNL1        0.0423
      9 C          61.5178   88.5840   10.6884 C.3     1  UNL1        0.0412
     10 C          60.5046   89.0794    9.6994 C.3     1  UNL1        0.0672
     11 S          59.9218   88.1381    8.6874 S.3     1  UNL1       -0.0807
     12 H          60.0518   84.8171    7.6369 H       1  UNL1        0.1442
     13 H          59.1044   86.0852    7.0030 H       1  UNL1        0.1442
     14 C          62.3785   85.7104   10.6421 C.ar    1  UNL1        0.0278
     15 C          62.0125   84.7995   11.7762 C.ar    1  UNL1        0.0021
     16 C          62.4429   83.3627   11.7531 C.ar    1  UNL1        0.0295
     17 C          63.2393   82.8370   10.5958 C.ar    1  UNL1        0.1424
     18 F          63.6698   81.4002   10.5727 F       1  UNL1       -0.2041
     19 C          63.6054   83.7480    9.4617 C.ar    1  UNL1        0.0590
     20 C          63.1750   85.1847    9.4849 C.ar    1  UNL1        0.1402
     21 F          63.5411   86.0957    8.3508 F       1  UNL1       -0.2044
     22 C          63.6965   89.9711   13.7015 C.ar    1  UNL1        0.2331
     23 N          63.1734   90.2105   15.0868 N.ar    1  UNL1       -0.2083
     24 C          64.0583   91.2257   15.7474 C.ar    1  UNL1        0.1424
     25 C          65.1283   91.6137   14.7704 C.ar    1  UNL1        0.2019
     26 O          64.9047   90.8383   13.5060 O.2     1  UNL1       -0.4327
@<TRIPOS>BOND
     1     1     2    1
     2     2     3    2
     3     3     4    1
     4     4    14    1
     5    14    15   ar
     6    15    16   ar
     7    16    17   ar
     8    17    18    1
     9    17    19   ar
    10    19    20   ar
    11    20    21    1
    12     4     5    1
    13     5     6    1
    14     6     7    1
    15     7    22    1
    16    22    23   ar
    17    23    24   ar
    18    24    25   ar
    19    25    26   ar
    20     7     8    1
    21     9     8    1
    22     9    10    1
    23    10    11    1
    24    11     2    1
    25     9     4    1
    26    20    14   ar
    27    26    22   ar
    28     1    12    1
    29     1    13    1
@<TRIPOS>MOLECULE
*****
 26 29 0 0 0
SMALL
GASTEIGER

@<TRIPOS>ATOM
      1 N          65.3595   85.9249   15.7751 N.pl3   1  UNL1       -0.3380
      2 C          64.5367   86.4304   14.6273 C.2     1  UNL1        0.1482
      3 N          63.8088   85.4623   13.7425 N.2     1  UNL1       -0.2484
      4 C          62.9860   85.9679   12.5947 C.3     1  UNL1        0.1352
      5 C          62.2581   84.9997   11.7099 C.3     1  UNL1        0.1692
      6 O          61.4353   85.5053   10.5621 O.3     1  UNL1       -0.3446
      7 C          61.3405   86.9790   10.2992 C.3     1  UNL1        0.1910
      8 C          62.0684   87.9471   11.1839 C.3     1  UNL1        0.0423
      9 C          62.8911   87.4416   12.3317 C.3     1  UNL1        0.0412
     10 C          63.6190   88.4097   13.2165 C.3     1  UNL1        0.0672
     11 S          64.4418   87.9041   14.3643 S.3     1  UNL1       -0.0807
     12 H          65.4218   84.9576   15.9477 H       1  UNL1        0.1442
     13 H          65.8372   86.5603   16.3558 H       1  UNL1        0.1442
     14 C          63.0809   84.4941   12.8577 C.ar    1  UNL1        0.0278
     15 C          63.9641   83.6350   12.0023 C.ar    1  UNL1        0.0021
     16 C          64.0590   82.1612   12.2653 C.ar    1  UNL1        0.0295
     17 C          63.2706   81.5467   13.3837 C.ar    1  UNL1        0.1424
     18 F          63.3654   80.0730   13.6467 F       1  UNL1       -0.2041
     19 C          62.3873   82.4059   14.2391 C.ar    1  UNL1        0.0590
     20 C          62.2925   83.8796   13.9761 C.ar    1  UNL1        0.1402
     21 F          61.4092   84.7388   14.8315 F       1  UNL1       -0.2044
     22 C          60.5177   87.4846    9.1514 C.ar    1  UNL1        0.2331
     23 N          59.6299   86.6562    8.2706 N.ar    1  UNL1       -0.2083
     24 C          59.0018   87.5670    7.2577 C.ar    1  UNL1        0.1424
     25 C          59.5013   88.9582    7.5124 C.ar    1  UNL1        0.2019
     26 O          60.4382   88.9073    8.6828 O.2     1  UNL1       -0.4327
@<TRIPOS>BOND
     1     1     2    1
     2     2     3    2
     3     3     4    1
     4     4    14    1
     5    14    15   ar
     6    15    16   ar
     7    16    17   ar
     8    17    18    1
     9    17    19   ar
    10    19    20   ar
    11    20    21    1
    12     4     5    1
    13     5     6    1
    14     6     7    1
    15     7    22    1
    16    22    23   ar
    17    23    24   ar
    18    24    25   ar
    19    25    26   ar
    20     7     8    1
    21     9     8    1
    22     9    10    1
    23    10    11    1
    24    11     2    1
    25     9     4    1
    26    20    14   ar
    27    26    22   ar
    28     1    12    1
    29     1    13    1
@<TRIPOS>MOLECULE
*****
 26 29 0 0 0
SMALL
GASTEIGER

@<TRIPOS>ATOM
      1 N          65.3808   81.7295   13.1090 N.pl3   1  UNL1       -0.3380
      2 C          64.5894   82.6334   12.2109 C.2     1  UNL1        0.1482
      3 N          63.8990   83.8379   12.7787 N.2     1  UNL1       -0.2484
      4 C          63.1076   84.7418   11.8806 C.3     1  UNL1        0.1352
      5 C          62.4172   85.9463   12.4485 C.3     1  UNL1        0.1692
      6 O          61.6258   86.8502   11.5503 O.3     1  UNL1       -0.3446
      7 C          61.5248   86.5495   10.0842 C.3     1  UNL1        0.1910
      8 C          62.2151   85.3449    9.5164 C.3     1  UNL1        0.0423
      9 C          63.0065   84.4411   10.4145 C.3     1  UNL1        0.0412
     10 C          63.6969   83.2366    9.8467 C.3     1  UNL1        0.0672
     11 S          64.4883   82.3327   10.7448 S.3     1  UNL1       -0.0807
     12 H          65.4471   81.9269   14.0713 H       1  UNL1        0.1442
     13 H          65.8339   80.9390   12.7363 H       1  UNL1        0.1442
     14 C          63.2086   85.0425   13.3467 C.ar    1  UNL1        0.0278
     15 C          64.0705   86.1742   13.8225 C.ar    1  UNL1        0.0021
     16 C          64.1715   86.4749   15.2886 C.ar    1  UNL1        0.0295
     17 C          63.4107   85.6439   16.2789 C.ar    1  UNL1        0.1424
     18 F          63.5117   85.9445   17.7449 F       1  UNL1       -0.2041
     19 C          62.5488   84.5121   15.8030 C.ar    1  UNL1        0.0590
     20 C          62.4478   84.2115   14.3369 C.ar    1  UNL1        0.1402
     21 F          61.5859   83.0797   13.8610 F       1  UNL1       -0.2044
     22 C          60.7333   87.4533    9.1860 C.ar    1  UNL1        0.2331
     23 N          59.6870   87.0220    8.2015 N.ar    1  UNL1       -0.2083
     24 C          59.1563   88.2493    7.5217 C.ar    1  UNL1        0.1424
     25 C          59.8746   89.4391    8.0861 C.ar    1  UNL1        0.2019
     26 O          60.8492   88.9471    9.1147 O.2     1  UNL1       -0.4327
@<TRIPOS>BOND
     1     1     2    1
     2     2     3    2
     3     3     4    1
     4     4    14    1
     5    14    15   ar
     6    15    16   ar
     7    16    17   ar
     8    17    18    1
     9    17    19   ar
    10    19    20   ar
    11    20    21    1
    12     4     5    1
    13     5     6    1
    14     6     7    1
    15     7    22    1
    16    22    23   ar
    17    23    24   ar
    18    24    25   ar
    19    25    26   ar
    20     7     8    1
    21     9     8    1
    22     9    10    1
    23    10    11    1
    24    11     2    1
    25     9     4    1
    26    20    14   ar
    27    26    22   ar
    28     1    12    1
    29     1    13    1
@<TRIPOS>MOLECULE
*****
 26 29 0 0 0
SMALL
GASTEIGER

@<TRIPOS>ATOM
      1 N          65.7924   94.3928   11.0706 N.pl3   1  UNL1       -0.3380
      2 C          65.2862   93.0791   11.5882 C.2     1  UNL1        0.1482
      3 N          65.8549   92.5008   12.8500 N.2     1  UNL1       -0.2484
      4 C          65.3488   91.1871   13.3677 C.3     1  UNL1        0.1352
      5 C          65.9176   90.6088   14.6295 C.3     1  UNL1        0.1692
      6 O          65.4114   89.2951   15.1472 O.3     1  UNL1       -0.3446
      7 C          64.3365   88.5596   14.4030 C.3     1  UNL1        0.1910
      8 C          63.7678   89.1379   13.1412 C.3     1  UNL1        0.0423
      9 C          64.2739   90.4516   12.6236 C.3     1  UNL1        0.0412
     10 C          63.7052   91.0299   11.3618 C.3     1  UNL1        0.0672
     11 S          64.2114   92.3436   10.8441 S.3     1  UNL1       -0.0807
     12 H          66.4979   94.8755   11.5590 H       1  UNL1        0.1442
     13 H          65.4191   94.7723   10.2424 H       1  UNL1        0.1442
     14 C          66.4237   91.9225   14.1119 C.ar    1  UNL1        0.0278
     15 C          66.0839   92.6927   15.3533 C.ar    1  UNL1        0.0021
     16 C          67.1588   93.4281   16.0975 C.ar    1  UNL1        0.0295
     17 C          68.5736   93.3933   15.6002 C.ar    1  UNL1        0.1424
     18 F          69.6485   94.1287   16.3443 F       1  UNL1       -0.2041
     19 C          68.9133   92.6231   14.3586 C.ar    1  UNL1        0.0590
     20 C          67.8384   91.8877   13.6145 C.ar    1  UNL1        0.1402
     21 F          68.1782   91.1174   12.3730 F       1  UNL1       -0.2044
     22 C          63.8303   87.2459   14.9206 C.ar    1  UNL1        0.2331
     23 N          63.7965   85.9529   14.1610 N.ar    1  UNL1       -0.2083
     24 C          63.2144   84.9024   15.0597 C.ar    1  UNL1        0.1424
     25 C          62.8884   85.5462   16.3747 C.ar    1  UNL1        0.2019
     26 O          63.2691   86.9945   16.2888 O.2     1  UNL1       -0.4327
@<TRIPOS>BOND
     1     1     2    1
     2     2     3    2
     3     3     4    1
     4     4    14    1
     5    14    15   ar
     6    15    16   ar
     7    16    17   ar
     8    17    18    1
     9    17    19   ar
    10    19    20   ar
    11    20    21    1
    12     4     5    1
    13     5     6    1
    14     6     7    1
    15     7    22    1
    16    22    23   ar
    17    23    24   ar
    18    24    25   ar
    19    25    26   ar
    20     7     8    1
    21     9     8    1
    22     9    10    1
    23    10    11    1
    24    11     2    1
    25     9     4    1
    26    20    14   ar
    27    26    22   ar
    28     1    12    1
    29     1    13    1
@<TRIPOS>MOLECULE
*****
 26 29 0 0 0
SMALL
GASTEIGER

@<TRIPOS>ATOM
      1 N          65.4818   93.6705    1.4664 N.pl3   1  UNL1       -0.3380
      2 C          64.0920   93.3298    1.0163 C.2     1  UNL1        0.1482
      3 N          63.5875   93.8307   -0.3045 N.2     1  UNL1       -0.2484
      4 C          62.1978   93.4901   -0.7546 C.3     1  UNL1        0.1352
      5 C          61.6933   93.9910   -2.0755 C.3     1  UNL1        0.1692
      6 O          60.3035   93.6503   -2.5255 O.3     1  UNL1       -0.3446
      7 C          59.4183   92.8088   -1.6547 C.3     1  UNL1        0.1910
      8 C          59.9228   92.3080   -0.3339 C.3     1  UNL1        0.0423
      9 C          61.3125   92.6486    0.1162 C.3     1  UNL1        0.0412
     10 C          61.8171   92.1478    1.4370 C.3     1  UNL1        0.0672
     11 S          63.2068   92.4884    1.8870 S.3     1  UNL1       -0.0807
     12 H          66.0628   94.2228    0.8948 H       1  UNL1        0.1442
     13 H          65.8129   93.3417    2.3333 H       1  UNL1        0.1442
     14 C          63.0830   94.3316   -1.6254 C.ar    1  UNL1        0.0278
     15 C          63.2607   95.7907   -1.3267 C.ar    1  UNL1        0.0021
     16 C          64.1459   96.6322   -2.1975 C.ar    1  UNL1        0.0295
     17 C          64.8535   96.0145   -3.3670 C.ar    1  UNL1        0.1424
     18 F          65.7387   96.8560   -4.2378 F       1  UNL1       -0.2041
     19 C          64.6758   94.5553   -3.6657 C.ar    1  UNL1        0.0590
     20 C          63.7906   93.7139   -2.7949 C.ar    1  UNL1        0.1402
     21 F          63.6129   92.2546   -3.0936 F       1  UNL1       -0.2044
     22 C          58.0285   92.4682   -2.1048 C.ar    1  UNL1        0.2331
     23 N          56.8033   92.4416   -1.2397 N.ar    1  UNL1       -0.2083
     24 C          55.6375   92.0513   -2.0993 C.ar    1  UNL1        0.1424
     25 C          56.1422   91.8368   -3.4954 C.ar    1  UNL1        0.2019
     26 O          57.6199   92.0944   -3.4988 O.2     1  UNL1       -0.4327
@<TRIPOS>BOND
     1     1     2    1
     2     2     3    2
     3     3     4    1
     4     4    14    1
     5    14    15   ar
     6    15    16   ar
     7    16    17   ar
     8    17    18    1
     9    17    19   ar
    10    19    20   ar
    11    20    21    1
    12     4     5    1
    13     5     6    1
    14     6     7    1
    15     7    22    1
    16    22    23   ar
    17    23    24   ar
    18    24    25   ar
    19    25    26   ar
    20     7     8    1
    21     9     8    1
    22     9    10    1
    23    10    11    1
    24    11     2    1
    25     9     4    1
    26    20    14   ar
    27    26    22   ar
    28     1    12    1
    29     1    13    1
@<TRIPOS>MOLECULE
*****
 26 29 0 0 0
SMALL
GASTEIGER

@<TRIPOS>ATOM
      1 N          65.8403   93.2295    0.6599 N.pl3   1  UNL1       -0.3380
      2 C          64.3503   93.2307    0.4865 C.2     1  UNL1        0.1482
      3 N          63.7507   93.5630   -0.8476 N.2     1  UNL1       -0.2484
      4 C          62.2608   93.5642   -1.0210 C.3     1  UNL1        0.1352
      5 C          61.6612   93.8965   -2.3552 C.3     1  UNL1        0.1692
      6 O          60.1713   93.8977   -2.5286 O.3     1  UNL1       -0.3446
      7 C          59.2809   93.5666   -1.3677 C.3     1  UNL1        0.1910
      8 C          59.8805   93.2343   -0.0335 C.3     1  UNL1        0.0423
      9 C          61.3704   93.2331    0.1398 C.3     1  UNL1        0.0412
     10 C          61.9700   92.9008    1.4740 C.3     1  UNL1        0.0672
     11 S          63.4600   92.8996    1.6473 S.3     1  UNL1       -0.0807
     12 H          66.4247   93.4468   -0.1021 H       1  UNL1        0.1442
     13 H          66.2338   93.0114    1.5355 H       1  UNL1        0.1442
     14 C          63.1512   93.8953   -2.1819 C.ar    1  UNL1        0.0278
     15 C          63.5468   92.8231   -3.1534 C.ar    1  UNL1        0.0021
     16 C          64.4372   93.1542   -4.3143 C.ar    1  UNL1        0.0295
     17 C          64.9319   94.5575   -4.5037 C.ar    1  UNL1        0.1424
     18 F          65.8222   94.8887   -5.6645 F       1  UNL1       -0.2041
     19 C          64.5362   95.6298   -3.5321 C.ar    1  UNL1        0.0590
     20 C          63.6459   95.2986   -2.3713 C.ar    1  UNL1        0.1402
     21 F          63.2502   96.3709   -1.3997 F       1  UNL1       -0.2044
     22 C          57.7909   93.5678   -1.5410 C.ar    1  UNL1        0.2331
     23 N          56.9518   92.3993   -1.9662 N.ar    1  UNL1       -0.2083
     24 C          55.5208   92.8471   -2.0075 C.ar    1  UNL1        0.1424
     25 C          55.4754   94.2921   -1.6079 C.ar    1  UNL1        0.2019
     26 O          56.8785   94.7375   -1.3196 O.2     1  UNL1       -0.4327
@<TRIPOS>BOND
     1     1     2    1
     2     2     3    2
     3     3     4    1
     4     4    14    1
     5    14    15   ar
     6    15    16   ar
     7    16    17   ar
     8    17    18    1
     9    17    19   ar
    10    19    20   ar
    11    20    21    1
    12     4     5    1
    13     5     6    1
    14     6     7    1
    15     7    22    1
    16    22    23   ar
    17    23    24   ar
    18    24    25   ar
    19    25    26   ar
    20     7     8    1
    21     9     8    1
    22     9    10    1
    23    10    11    1
    24    11     2    1
    25     9     4    1
    26    20    14   ar
    27    26    22   ar
    28     1    12    1
    29     1    13    1
@<TRIPOS>MOLECULE
*****
 26 29 0 0 0
SMALL
GASTEIGER

@<TRIPOS>ATOM
      1 N          59.9207   87.9170   12.0532 N.pl3   1  UNL1       -0.3380
      2 C          60.9245   88.9157   11.5582 C.2     1  UNL1        0.1482
      3 N          62.0632   89.3348   12.4401 N.2     1  UNL1       -0.2484
      4 C          63.0670   90.3335   11.9452 C.3     1  UNL1        0.1352
      5 C          64.2056   90.7526   12.8272 C.3     1  UNL1        0.1692
      6 O          65.2094   91.7513   12.3322 O.3     1  UNL1       -0.3446
      7 C          65.0746   92.3309   10.9552 C.3     1  UNL1        0.1910
      8 C          63.9360   91.9117   10.0733 C.3     1  UNL1        0.0423
      9 C          62.9321   90.9131   10.5683 C.3     1  UNL1        0.0412
     10 C          61.7935   90.4939    9.6864 C.3     1  UNL1        0.0672
     11 S          60.7897   89.4953   10.1813 S.3     1  UNL1       -0.0807
     12 H          60.0092   87.5366   12.9569 H       1  UNL1        0.1442
     13 H          59.1734   87.6419   11.4744 H       1  UNL1        0.1442
     14 C          63.2018   89.7539   13.3222 C.ar    1  UNL1        0.0278
     15 C          62.9623   90.6164   14.5257 C.ar    1  UNL1        0.0021
     16 C          63.0972   90.0369   15.9027 C.ar    1  UNL1        0.0295
     17 C          63.4716   88.5947   16.0760 C.ar    1  UNL1        0.1424
     18 F          63.6065   88.0151   17.4529 F       1  UNL1       -0.2041
     19 C          63.7111   87.7322   14.8723 C.ar    1  UNL1        0.0590
     20 C          63.5762   88.3118   13.4955 C.ar    1  UNL1        0.1402
     21 F          63.8158   87.4492   12.2918 F       1  UNL1       -0.2044
     22 C          66.0784   93.3295   10.4603 C.ar    1  UNL1        0.2331
     23 N          66.0600   94.8053   10.7285 N.ar    1  UNL1       -0.2083
     24 C          67.2471   95.4156   10.0442 C.ar    1  UNL1        0.1424
     25 C          67.9991   94.3171    9.3530 C.ar    1  UNL1        0.2019
     26 O          67.2768   93.0279    9.6101 O.2     1  UNL1       -0.4327
@<TRIPOS>BOND
     1     1     2    1
     2     2     3    2
     3     3     4    1
     4     4    14    1
     5    14    15   ar
     6    15    16   ar
     7    16    17   ar
     8    17    18    1
     9    17    19   ar
    10    19    20   ar
    11    20    21    1
    12     4     5    1
    13     5     6    1
    14     6     7    1
    15     7    22    1
    16    22    23   ar
    17    23    24   ar
    18    24    25   ar
    19    25    26   ar
    20     7     8    1
    21     9     8    1
    22     9    10    1
    23    10    11    1
    24    11     2    1
    25     9     4    1
    26    20    14   ar
    27    26    22   ar
    28     1    12    1
    29     1    13    1
