@<TRIPOS>MOLECULE
*****
 26 29 0 0 0
SMALL
GASTEIGER

@<TRIPOS>ATOM
      1 C          62.1005   89.4361   11.4957 C.3     1  UNL1        0.2068
      2 O          62.7951   89.4538   13.9991 O.2     1  UNL1       -0.2739
      3 C          62.9531   89.9803   12.6035 C.2     1  UNL1        0.2419
      4 N          63.9636   91.0508   12.3156 N.am    1  UNL1       -0.2581
      5 C          64.2331   91.6718   10.9770 C.3     1  UNL1        0.1029
      6 C          65.3180   92.6930   11.1499 C.3     1  UNL1        0.0496
      7 C          65.7190   92.7033   12.5953 C.ar    1  UNL1       -0.0045
      8 C          66.7383   93.5056   13.3485 C.ar    1  UNL1        0.0267
      9 C          66.9204   93.2930   14.8221 C.ar    1  UNL1        0.1399
     10 F          67.9397   94.0954   15.5753 F       1  UNL1       -0.2042
     11 C          66.0833   92.2781   15.5425 C.ar    1  UNL1        0.0309
     12 C          65.0640   91.4757   14.7894 C.ar    1  UNL1        0.0169
     13 C          64.8819   91.6883   13.3157 C.ar    1  UNL1        0.0500
     14 C          62.2166   87.9942   11.0991 C.2     1  UNL1        0.3580
     15 N          62.5737   86.9604   12.1256 N.2     1  UNL1       -0.0039
     16 C          62.6898   85.5184   11.7290 C.2     1  UNL1        0.3159
     17 C          62.4488   85.1104   10.3058 C.3     1  UNL1        0.2333
     18 C          62.0917   86.1442    9.2793 C.2     1  UNL1        0.3644
     19 O          61.8507   85.7360    7.8561 O.2     1  UNL1       -0.2422
     20 N          61.9756   87.5861    9.6759 N.am    1  UNL1        0.0289
     21 N          63.0468   84.4846   12.7555 N.pl3   1  UNL1       -0.1888
     22 C          63.7243   84.8952   14.0292 C.3     1  UNL1        0.2343
     23 C          64.0814   83.8614   15.0557 C.3     1  UNL1        0.1929
     24 O          63.7610   82.4170   14.8085 O.3     1  UNL1       -0.3449
     25 C          63.0834   82.0064   13.5347 C.3     1  UNL1        0.1929
     26 C          62.7264   83.0402   12.5082 C.3     1  UNL1        0.2343
@<TRIPOS>BOND
     1     2     3    2
     2     3     1    1
     3     1    14    1
     4    14    15    1
     5    15    16    2
     6    16    21    1
     7    21    22    1
     8    22    23    1
     9    23    24    1
    10    24    25    1
    11    25    26    1
    12    16    17    1
    13    17    18    1
    14    18    19    2
    15    18    20    1
    16     3     4   am
    17     4     5    1
    18     5     6    1
    19     6     7    1
    20     7     8   ar
    21     8     9   ar
    22     9    10    1
    23     9    11   ar
    24    11    12   ar
    25    12    13   ar
    26    20    14    2
    27    13     4    1
    28    26    21    1
    29    13     7   ar
@<TRIPOS>MOLECULE
*****
 26 29 0 0 0
SMALL
GASTEIGER

@<TRIPOS>ATOM
      1 C          63.0797   90.4720   13.8170 C.3     1  UNL1        0.2068
      2 O          63.7873   88.0737   13.1120 O.2     1  UNL1       -0.2739
      3 C          62.9486   89.2977   12.8929 C.2     1  UNL1        0.2419
      4 N          61.9786   89.3475   11.7498 N.am    1  UNL1       -0.2581
      5 C          61.0780   90.4971   11.4072 C.3     1  UNL1        0.1029
      6 C          60.2817   90.1165   10.1942 C.3     1  UNL1        0.0496
      7 C          60.6903   88.7318    9.7872 C.ar    1  UNL1       -0.0045
      8 C          60.2428   87.8423    8.6654 C.ar    1  UNL1        0.0267
      9 C          60.8441   86.4775    8.5050 C.ar    1  UNL1        0.1399
     10 F          60.3967   85.5879    7.3831 F       1  UNL1       -0.2042
     11 C          61.8928   86.0022    9.4664 C.ar    1  UNL1        0.0309
     12 C          62.3403   86.8917   10.5882 C.ar    1  UNL1        0.0169
     13 C          61.7390   88.2565   10.7486 C.ar    1  UNL1        0.0500
     14 C          64.3305   91.3000   13.8046 C.2     1  UNL1        0.3580
     15 N          64.9285   91.7360   12.4999 N.2     1  UNL1       -0.0039
     16 C          66.1792   92.5640   12.4876 C.2     1  UNL1        0.3159
     17 C          66.8318   92.9560   13.7800 C.3     1  UNL1        0.2333
     18 C          66.2338   92.5200   15.0847 C.2     1  UNL1        0.3644
     19 O          66.8865   92.9120   16.3772 O.2     1  UNL1       -0.2422
     20 N          64.9831   91.6920   15.0971 N.am    1  UNL1        0.0289
     21 N          66.7772   93.0000   11.1829 N.pl3   1  UNL1       -0.1888
     22 C          67.7615   92.1158   10.4764 C.3     1  UNL1        0.2343
     23 C          68.3595   92.5518    9.1717 C.3     1  UNL1        0.1929
     24 O          67.9732   93.8720    8.5735 O.3     1  UNL1       -0.3449
     25 C          66.9887   94.7563    9.2800 C.3     1  UNL1        0.1929
     26 C          66.3907   94.3203   10.5848 C.3     1  UNL1        0.2343
@<TRIPOS>BOND
     1     2     3    2
     2     3     1    1
     3     1    14    1
     4    14    15    1
     5    15    16    2
     6    16    21    1
     7    21    22    1
     8    22    23    1
     9    23    24    1
    10    24    25    1
    11    25    26    1
    12    16    17    1
    13    17    18    1
    14    18    19    2
    15    18    20    1
    16     3     4   am
    17     4     5    1
    18     5     6    1
    19     6     7    1
    20     7     8   ar
    21     8     9   ar
    22     9    10    1
    23     9    11   ar
    24    11    12   ar
    25    12    13   ar
    26    20    14    2
    27    13     4    1
    28    26    21    1
    29    13     7   ar
@<TRIPOS>MOLECULE
*****
 26 29 0 0 0
SMALL
GASTEIGER

@<TRIPOS>ATOM
      1 C          61.7711   89.3189   11.2055 C.3     1  UNL1        0.2068
      2 O          63.4072   91.0980   10.2528 O.2     1  UNL1       -0.2739
      3 C          62.8917   90.2950   11.4100 C.2     1  UNL1        0.2419
      4 N          63.4964   90.4680   12.7718 N.am    1  UNL1       -0.2581
      5 C          63.0877   89.7387   14.0172 C.3     1  UNL1        0.1029
      6 C          63.9548   90.2207   15.1422 C.3     1  UNL1        0.0496
      7 C          64.8994   91.2479   14.5922 C.ar    1  UNL1       -0.0045
      8 C          65.9809   92.0638   15.2361 C.ar    1  UNL1        0.0267
      9 C          66.7791   93.0326   14.4149 C.ar    1  UNL1        0.1399
     10 F          67.8607   93.8485   15.0588 F       1  UNL1       -0.2042
     11 C          66.4958   93.1854   12.9498 C.ar    1  UNL1        0.0309
     12 C          65.4143   92.3695   12.3060 C.ar    1  UNL1        0.0169
     13 C          64.6161   91.4008   13.1271 C.ar    1  UNL1        0.0500
     14 C          62.0746   87.8799   10.9099 C.2     1  UNL1        0.3580
     15 N          62.4175   86.9407   12.0280 N.2     1  UNL1       -0.0039
     16 C          62.7210   85.5018   11.7324 C.2     1  UNL1        0.3159
     17 C          62.6815   85.0022   10.3187 C.3     1  UNL1        0.2333
     18 C          62.3385   85.9414    9.2005 C.2     1  UNL1        0.3644
     19 O          62.2990   85.4416    7.7867 O.2     1  UNL1       -0.2422
     20 N          62.0351   87.3803    9.4962 N.am    1  UNL1        0.0289
     21 N          63.0640   84.5626   12.8506 N.pl3   1  UNL1       -0.1888
     22 C          63.7584   85.0776   14.0763 C.3     1  UNL1        0.2343
     23 C          64.1013   84.1384   15.1944 C.3     1  UNL1        0.1929
     24 O          63.7499   82.6841   15.0868 O.3     1  UNL1       -0.3449
     25 C          63.0554   82.1691   13.8610 C.3     1  UNL1        0.1929
     26 C          62.7124   83.1083   12.7429 C.3     1  UNL1        0.2343
@<TRIPOS>BOND
     1     2     3    2
     2     3     1    1
     3     1    14    1
     4    14    15    1
     5    15    16    2
     6    16    21    1
     7    21    22    1
     8    22    23    1
     9    23    24    1
    10    24    25    1
    11    25    26    1
    12    16    17    1
    13    17    18    1
    14    18    19    2
    15    18    20    1
    16     3     4   am
    17     4     5    1
    18     5     6    1
    19     6     7    1
    20     7     8   ar
    21     8     9   ar
    22     9    10    1
    23     9    11   ar
    24    11    12   ar
    25    12    13   ar
    26    20    14    2
    27    13     4    1
    28    26    21    1
    29    13     7   ar
@<TRIPOS>MOLECULE
*****
 26 29 0 0 0
SMALL
GASTEIGER

@<TRIPOS>ATOM
      1 C          63.3811   90.2301   12.9133 C.3     1  UNL1        0.2068
      2 O          64.4591   88.4813   14.5037 O.2     1  UNL1       -0.2739
      3 C          63.6477   88.8011   13.2834 C.2     1  UNL1        0.2419
      4 N          63.1029   87.6920   12.4331 N.am    1  UNL1       -0.2581
      5 C          62.2791   87.8569   11.1904 C.3     1  UNL1        0.1029
      6 C          61.9534   86.4900   10.6656 C.3     1  UNL1        0.0496
      7 C          62.5758   85.4803   11.5838 C.ar    1  UNL1       -0.0045
      8 C          62.5873   83.9805   11.5663 C.ar    1  UNL1        0.0267
      9 C          63.3094   83.2235   12.6413 C.ar    1  UNL1        0.1399
     10 F          63.3210   81.7236   12.6239 F       1  UNL1       -0.2042
     11 C          64.0199   83.9664   13.7337 C.ar    1  UNL1        0.0309
     12 C          64.0083   85.4662   13.7512 C.ar    1  UNL1        0.0169
     13 C          63.2862   86.2232   12.6762 C.ar    1  UNL1        0.0500
     14 C          64.4193   91.2798   13.1786 C.2     1  UNL1        0.3580
     15 N          64.9449   92.1168   12.0503 N.2     1  UNL1       -0.0039
     16 C          65.9831   93.1665   12.3155 C.2     1  UNL1        0.3159
     17 C          66.4956   93.3791   13.7091 C.3     1  UNL1        0.2333
     18 C          65.9700   92.5420   14.8374 C.2     1  UNL1        0.3644
     19 O          66.4826   92.7547   16.2311 O.2     1  UNL1       -0.2422
     20 N          64.9318   91.4924   14.5721 N.am    1  UNL1        0.0289
     21 N          66.5088   94.0035   11.1872 N.pl3   1  UNL1       -0.1888
     22 C          66.3170   95.4911   11.2044 C.3     1  UNL1        0.2343
     23 C          66.8427   96.3281   10.0761 C.3     1  UNL1        0.1929
     24 O          67.5601   95.6776    8.9306 O.3     1  UNL1       -0.3449
     25 C          67.7518   94.1899    8.9135 C.3     1  UNL1        0.1929
     26 C          67.2262   93.3529   10.0418 C.3     1  UNL1        0.2343
@<TRIPOS>BOND
     1     2     3    2
     2     3     1    1
     3     1    14    1
     4    14    15    1
     5    15    16    2
     6    16    21    1
     7    21    22    1
     8    22    23    1
     9    23    24    1
    10    24    25    1
    11    25    26    1
    12    16    17    1
    13    17    18    1
    14    18    19    2
    15    18    20    1
    16     3     4   am
    17     4     5    1
    18     5     6    1
    19     6     7    1
    20     7     8   ar
    21     8     9   ar
    22     9    10    1
    23     9    11   ar
    24    11    12   ar
    25    12    13   ar
    26    20    14    2
    27    13     4    1
    28    26    21    1
    29    13     7   ar
@<TRIPOS>MOLECULE
*****
 26 29 0 0 0
SMALL
GASTEIGER

@<TRIPOS>ATOM
      1 C          63.3827   90.5647   13.5864 C.3     1  UNL1        0.2068
      2 O          62.3650   89.3642   11.5193 O.2     1  UNL1       -0.2739
      3 C          63.0939   89.3026   12.8288 C.2     1  UNL1        0.2419
      4 N          63.5340   87.9791   13.3807 N.am    1  UNL1       -0.2581
      5 C          64.2681   87.7620   14.6706 C.3     1  UNL1        0.1029
      6 C          64.5051   86.2891   14.8267 C.3     1  UNL1        0.0496
      7 C          63.9175   85.5959   13.6333 C.ar    1  UNL1       -0.0045
      8 C          63.8514   84.1486   13.2449 C.ar    1  UNL1        0.0267
      9 C          63.1851   83.7459   11.9628 C.ar    1  UNL1        0.1399
     10 F          63.1189   82.2985   11.5744 F       1  UNL1       -0.2042
     11 C          62.5849   84.7904   11.0691 C.ar    1  UNL1        0.0309
     12 C          62.6510   86.2377   11.4575 C.ar    1  UNL1        0.0169
     13 C          63.3173   86.6405   12.7396 C.ar    1  UNL1        0.0500
     14 C          64.7354   91.2055   13.4882 C.2     1  UNL1        0.3580
     15 N          65.1082   91.9866   12.2631 N.2     1  UNL1       -0.0039
     16 C          66.4609   92.6274   12.1650 C.2     1  UNL1        0.3159
     17 C          67.4408   92.4870   13.2920 C.3     1  UNL1        0.2333
     18 C          67.0680   91.7058   14.5171 C.2     1  UNL1        0.3644
     19 O          68.0480   91.5654   15.6441 O.2     1  UNL1       -0.2422
     20 N          65.7153   91.0651   14.6152 N.am    1  UNL1        0.0289
     21 N          66.8337   93.4085   10.9399 N.pl3   1  UNL1       -0.1888
     22 C          67.6490   92.7636    9.8585 C.3     1  UNL1        0.2343
     23 C          68.0218   93.5448    8.6335 C.3     1  UNL1        0.1929
     24 O          67.5792   94.9708    8.4897 O.3     1  UNL1       -0.3449
     25 C          66.7639   95.6157    9.5712 C.3     1  UNL1        0.1929
     26 C          66.3911   94.8346   10.7963 C.3     1  UNL1        0.2343
@<TRIPOS>BOND
     1     2     3    2
     2     3     1    1
     3     1    14    1
     4    14    15    1
     5    15    16    2
     6    16    21    1
     7    21    22    1
     8    22    23    1
     9    23    24    1
    10    24    25    1
    11    25    26    1
    12    16    17    1
    13    17    18    1
    14    18    19    2
    15    18    20    1
    16     3     4   am
    17     4     5    1
    18     5     6    1
    19     6     7    1
    20     7     8   ar
    21     8     9   ar
    22     9    10    1
    23     9    11   ar
    24    11    12   ar
    25    12    13   ar
    26    20    14    2
    27    13     4    1
    28    26    21    1
    29    13     7   ar
@<TRIPOS>MOLECULE
*****
 26 29 0 0 0
SMALL
GASTEIGER

@<TRIPOS>ATOM
      1 C          64.4332   86.7735   14.5376 C.3     1  UNL1        0.2068
      2 O          62.6591   85.3825   15.8290 O.2     1  UNL1       -0.2739
      3 C          63.6405   85.5106   14.7019 C.2     1  UNL1        0.2419
      4 N          63.8292   84.3760   13.7390 N.am    1  UNL1       -0.2581
      5 C          64.7688   84.3589   12.5699 C.3     1  UNL1        0.1029
      6 C          64.6317   83.0316   11.8846 C.3     1  UNL1        0.0496
      7 C          63.6074   82.2285   12.6301 C.ar    1  UNL1       -0.0045
      8 C          63.0623   80.8480   12.4135 C.ar    1  UNL1        0.0267
      9 C          62.0211   80.2984   13.3429 C.ar    1  UNL1        0.1399
     10 F          61.4760   78.9179   13.1263 F       1  UNL1       -0.2042
     11 C          61.5252   81.1293   14.4891 C.ar    1  UNL1        0.0309
     12 C          62.0703   82.5099   14.7057 C.ar    1  UNL1        0.0169
     13 C          63.1114   83.0595   13.7763 C.ar    1  UNL1        0.0500
     14 C          63.9185   87.8729   13.6565 C.2     1  UNL1        0.3580
     15 N          63.0666   87.5437   12.4665 N.2     1  UNL1       -0.0039
     16 C          62.5519   88.6431   11.5854 C.2     1  UNL1        0.3159
     17 C          62.8890   90.0716   11.8943 C.3     1  UNL1        0.2333
     18 C          63.7409   90.4009   13.0842 C.2     1  UNL1        0.3644
     19 O          64.0780   91.8296   13.3931 O.2     1  UNL1       -0.2422
     20 N          64.2556   89.3015   13.9654 N.am    1  UNL1        0.0289
     21 N          61.7001   88.3138   10.3955 N.pl3   1  UNL1       -0.1888
     22 C          61.6017   86.8972    9.9125 C.3     1  UNL1        0.2343
     23 C          60.7499   86.5679    8.7225 C.3     1  UNL1        0.1929
     24 O          59.9964   87.6554    8.0156 O.3     1  UNL1       -0.3449
     25 C          60.0947   89.0722    8.4987 C.3     1  UNL1        0.1929
     26 C          60.9466   89.4014    9.6886 C.3     1  UNL1        0.2343
@<TRIPOS>BOND
     1     2     3    2
     2     3     1    1
     3     1    14    1
     4    14    15    1
     5    15    16    2
     6    16    21    1
     7    21    22    1
     8    22    23    1
     9    23    24    1
    10    24    25    1
    11    25    26    1
    12    16    17    1
    13    17    18    1
    14    18    19    2
    15    18    20    1
    16     3     4   am
    17     4     5    1
    18     5     6    1
    19     6     7    1
    20     7     8   ar
    21     8     9   ar
    22     9    10    1
    23     9    11   ar
    24    11    12   ar
    25    12    13   ar
    26    20    14    2
    27    13     4    1
    28    26    21    1
    29    13     7   ar
@<TRIPOS>MOLECULE
*****
 26 29 0 0 0
SMALL
GASTEIGER

@<TRIPOS>ATOM
      1 C          62.7964   90.5582   11.6482 C.3     1  UNL1        0.2068
      2 O          64.9831   91.7944   10.9850 O.2     1  UNL1       -0.2739
      3 C          64.0691   91.2480   12.0413 C.2     1  UNL1        0.2419
      4 N          64.4277   91.3914   13.4908 N.am    1  UNL1       -0.2581
      5 C          63.6170   90.8983   14.6525 C.3     1  UNL1        0.1029
      6 C          64.3482   91.2552   15.9126 C.3     1  UNL1        0.0496
      7 C          65.6108   91.9689   15.5297 C.ar    1  UNL1       -0.0045
      8 C          66.7220   92.5530   16.3506 C.ar    1  UNL1        0.0267
      9 C          67.8824   93.2213   15.6747 C.ar    1  UNL1        0.1399
     10 F          68.9937   93.8054   16.4956 F       1  UNL1       -0.2042
     11 C          67.9315   93.3055   14.1779 C.ar    1  UNL1        0.0309
     12 C          66.8202   92.7214   13.3570 C.ar    1  UNL1        0.0169
     13 C          65.6599   92.0531   14.0329 C.ar    1  UNL1        0.0500
     14 C          62.7507   89.0615   11.5605 C.2     1  UNL1        0.3580
     15 N          62.2748   88.3981   10.3022 N.2     1  UNL1       -0.0039
     16 C          62.2292   86.9013   10.2144 C.2     1  UNL1        0.3159
     17 C          62.6595   86.0681   11.3851 C.3     1  UNL1        0.2333
     18 C          63.1354   86.7315   12.6434 C.2     1  UNL1        0.3644
     19 O          63.5657   85.8981   13.8141 O.2     1  UNL1       -0.2422
     20 N          63.1810   88.2282   12.7311 N.am    1  UNL1        0.0289
     21 N          61.7533   86.2380    8.9561 N.pl3   1  UNL1       -0.1888
     22 C          62.6955   85.3925    8.1515 C.3     1  UNL1        0.2343
     23 C          62.2195   84.7292    6.8931 C.3     1  UNL1        0.1929
     24 O          60.8014   84.9112    6.4395 O.3     1  UNL1       -0.3449
     25 C          59.8592   85.7567    7.2442 C.3     1  UNL1        0.1929
     26 C          60.3351   86.4201    8.5025 C.3     1  UNL1        0.2343
@<TRIPOS>BOND
     1     2     3    2
     2     3     1    1
     3     1    14    1
     4    14    15    1
     5    15    16    2
     6    16    21    1
     7    21    22    1
     8    22    23    1
     9    23    24    1
    10    24    25    1
    11    25    26    1
    12    16    17    1
    13    17    18    1
    14    18    19    2
    15    18    20    1
    16     3     4   am
    17     4     5    1
    18     5     6    1
    19     6     7    1
    20     7     8   ar
    21     8     9   ar
    22     9    10    1
    23     9    11   ar
    24    11    12   ar
    25    12    13   ar
    26    20    14    2
    27    13     4    1
    28    26    21    1
    29    13     7   ar
@<TRIPOS>MOLECULE
*****
 26 29 0 0 0
SMALL
GASTEIGER

@<TRIPOS>ATOM
      1 C          62.6928   90.0412   12.4307 C.3     1  UNL1        0.2068
      2 O          63.2528   90.2638   14.9579 O.2     1  UNL1       -0.2739
      3 C          63.5583   90.5901   13.5261 C.2     1  UNL1        0.2419
      4 N          64.7291   91.4653   13.1896 N.am    1  UNL1       -0.2581
      5 C          65.1557   91.8757   11.8113 C.3     1  UNL1        0.1029
      6 C          66.3692   92.7477   11.9422 C.3     1  UNL1        0.0496
      7 C          66.6925   92.8762   13.4013 C.ar    1  UNL1       -0.0045
      8 C          67.7789   93.6126   14.1275 C.ar    1  UNL1        0.0267
      9 C          67.8517   93.5563   15.6246 C.ar    1  UNL1        0.1399
     10 F          68.9382   94.2927   16.3509 F       1  UNL1       -0.2042
     11 C          66.8381   92.7637   16.3956 C.ar    1  UNL1        0.0309
     12 C          65.7517   92.0274   15.6694 C.ar    1  UNL1        0.0169
     13 C          65.6789   92.0836   14.1722 C.ar    1  UNL1        0.0500
     14 C          62.7379   88.5786   12.1010 C.2     1  UNL1        0.3580
     15 N          62.1970   88.0881   10.7907 N.2     1  UNL1       -0.0039
     16 C          62.2420   86.6255   10.4609 C.2     1  UNL1        0.3159
     17 C          62.8280   85.6534   11.4415 C.3     1  UNL1        0.2333
     18 C          63.3690   86.1439   12.7518 C.2     1  UNL1        0.3644
     19 O          63.9550   85.1717   13.7324 O.2     1  UNL1       -0.2422
     20 N          63.3239   87.6065   13.0815 N.am    1  UNL1        0.0289
     21 N          61.7011   86.1351    9.1506 N.pl3   1  UNL1       -0.1888
     22 C          60.2823   86.4336    8.7661 C.3     1  UNL1        0.2343
     23 C          59.7414   85.9431    7.4558 C.3     1  UNL1        0.1929
     24 O          60.6192   85.1542    6.5301 O.3     1  UNL1       -0.3449
     25 C          62.0381   84.8557    6.9147 C.3     1  UNL1        0.1929
     26 C          62.5791   85.3462    8.2250 C.3     1  UNL1        0.2343
@<TRIPOS>BOND
     1     2     3    2
     2     3     1    1
     3     1    14    1
     4    14    15    1
     5    15    16    2
     6    16    21    1
     7    21    22    1
     8    22    23    1
     9    23    24    1
    10    24    25    1
    11    25    26    1
    12    16    17    1
    13    17    18    1
    14    18    19    2
    15    18    20    1
    16     3     4   am
    17     4     5    1
    18     5     6    1
    19     6     7    1
    20     7     8   ar
    21     8     9   ar
    22     9    10    1
    23     9    11   ar
    24    11    12   ar
    25    12    13   ar
    26    20    14    2
    27    13     4    1
    28    26    21    1
    29    13     7   ar
@<TRIPOS>MOLECULE
*****
 26 29 0 0 0
SMALL
GASTEIGER

@<TRIPOS>ATOM
      1 C          64.2241   88.4402   13.7584 C.3     1  UNL1        0.2068
      2 O          63.0037   90.4457   12.6456 O.2     1  UNL1       -0.2739
      3 C          63.2975   88.9761   12.7075 C.2     1  UNL1        0.2419
      4 N          62.6648   88.0424   11.7186 N.am    1  UNL1       -0.2581
      5 C          62.8630   86.5568   11.6571 C.3     1  UNL1        0.1029
      6 C          62.0435   86.0266   10.5181 C.3     1  UNL1        0.0496
      7 C          61.3388   87.1845    9.8756 C.ar    1  UNL1       -0.0045
      8 C          60.3972   87.2654    8.7109 C.ar    1  UNL1        0.0267
      9 C          59.8395   88.5921    8.2881 C.ar    1  UNL1        0.1399
     10 F          58.8978   88.6730    7.1233 F       1  UNL1       -0.2042
     11 C          60.2235   89.8379    9.0300 C.ar    1  UNL1        0.0309
     12 C          61.1652   89.7571   10.1948 C.ar    1  UNL1        0.0169
     13 C          61.7228   88.4303   10.6176 C.ar    1  UNL1        0.0500
     14 C          63.7955   87.2897   14.6202 C.2     1  UNL1        0.3580
     15 N          63.6942   85.9119   14.0360 N.2     1  UNL1       -0.0039
     16 C          63.2656   84.7615   14.8978 C.2     1  UNL1        0.3159
     17 C          62.9382   84.9890   16.3438 C.3     1  UNL1        0.2333
     18 C          63.0394   86.3668   16.9280 C.2     1  UNL1        0.3644
     19 O          62.7119   86.5942   18.3742 O.2     1  UNL1       -0.2422
     20 N          63.4680   87.5172   16.0662 N.am    1  UNL1        0.0289
     21 N          63.1644   83.3836   14.3136 N.pl3   1  UNL1       -0.1888
     22 C          62.0244   82.4878   14.6982 C.3     1  UNL1        0.2343
     23 C          61.9232   81.1100   14.1140 C.3     1  UNL1        0.1929
     24 O          62.9619   80.6280   13.1452 O.3     1  UNL1       -0.3449
     25 C          64.1020   81.5238   12.7606 C.3     1  UNL1        0.1929
     26 C          64.2032   82.9017   13.3448 C.3     1  UNL1        0.2343
@<TRIPOS>BOND
     1     2     3    2
     2     3     1    1
     3     1    14    1
     4    14    15    1
     5    15    16    2
     6    16    21    1
     7    21    22    1
     8    22    23    1
     9    23    24    1
    10    24    25    1
    11    25    26    1
    12    16    17    1
    13    17    18    1
    14    18    19    2
    15    18    20    1
    16     3     4   am
    17     4     5    1
    18     5     6    1
    19     6     7    1
    20     7     8   ar
    21     8     9   ar
    22     9    10    1
    23     9    11   ar
    24    11    12   ar
    25    12    13   ar
    26    20    14    2
    27    13     4    1
    28    26    21    1
    29    13     7   ar
