@<TRIPOS>MOLECULE
*****
 14 15 0 0 0
SMALL
GASTEIGER

@<TRIPOS>ATOM
      1 C          65.2681   92.5322   11.3218 C.ar    1  UNL1        0.0258
      2 C          64.1668   91.8422   10.5728 C.ar    1  UNL1        0.0077
      3 C          63.2683   90.8741   11.2838 C.ar    1  UNL1        0.0202
      4 C          63.4711   90.5960   12.7438 C.ar    1  UNL1        0.0893
      5 N          62.7489   89.6985   13.7044 N.ar    1  UNL1       -0.2245
      6 C          63.4038   89.8338   15.0471 C.ar    1  UNL1        0.1567
      7 N          63.0022   89.1143   16.3005 N.pl3   1  UNL1       -0.3375
      8 S          64.5308   90.8149   14.9163 S.2     1  UNL1       -0.0520
      9 C          64.5724   91.2860   13.4927 C.ar    1  UNL1        0.0502
     10 C          65.4709   92.2541   12.7817 C.ar    1  UNL1        0.0142
     11 H          62.2444   88.4859   16.2861 H       1  UNL1        0.1442
     12 H          63.4963   89.2703   17.1376 H       1  UNL1        0.1442
     13 C          66.2959   94.9089   11.1099 C.3     1  UNL1        0.0742
     14 S          66.1666   93.5003   10.6108 S.3     1  UNL1       -0.1127
@<TRIPOS>BOND
     1    13    14    1
     2    14     1    1
     3     1     2   ar
     4     2     3   ar
     5     3     4   ar
     6     4     5   ar
     7     5     6   ar
     8     6     7    1
     9     6     8   ar
    10     8     9   ar
    11     9    10   ar
    12    10     1   ar
    13     9     4   ar
    14     7    11    1
    15     7    12    1
@<TRIPOS>MOLECULE
*****
 14 15 0 0 0
SMALL
GASTEIGER

@<TRIPOS>ATOM
      1 C          62.3117   85.5925    9.7929 C.ar    1  UNL1        0.0258
      2 C          63.2168   84.5689    9.1741 C.ar    1  UNL1        0.0077
      3 C          63.9105   83.5596   10.0401 C.ar    1  UNL1        0.0202
      4 C          63.6991   83.5739   11.5251 C.ar    1  UNL1        0.0893
      5 N          64.2436   82.7113   12.6248 N.ar    1  UNL1       -0.2245
      6 C          63.6749   83.2017   13.9233 C.ar    1  UNL1        0.1567
      7 N          63.9534   82.6272   15.2807 N.pl3   1  UNL1       -0.3375
      8 S          62.7790   84.3674   13.6262 S.2     1  UNL1       -0.0520
      9 C          62.7939   84.5975   12.1439 C.ar    1  UNL1        0.0502
     10 C          62.1002   85.6067   11.2778 C.ar    1  UNL1        0.0142
     11 H          64.5593   81.8569   15.3744 H       1  UNL1        0.1442
     12 H          63.5303   83.0205   16.0780 H       1  UNL1        0.1442
     13 C          60.2708   86.2912    8.3450 C.3     1  UNL1        0.0742
     14 S          61.6179   86.6017    8.9268 S.3     1  UNL1       -0.1127
@<TRIPOS>BOND
     1    13    14    1
     2    14     1    1
     3     1     2   ar
     4     2     3   ar
     5     3     4   ar
     6     4     5   ar
     7     5     6   ar
     8     6     7    1
     9     6     8   ar
    10     8     9   ar
    11     9    10   ar
    12    10     1   ar
    13     9     4   ar
    14     7    11    1
    15     7    12    1
@<TRIPOS>MOLECULE
*****
 14 15 0 0 0
SMALL
GASTEIGER

@<TRIPOS>ATOM
      1 C          61.2942   86.3581    9.5173 C.ar    1  UNL1        0.0258
      2 C          62.1022   85.9182    8.3326 C.ar    1  UNL1        0.0077
      3 C          63.1683   84.8759    8.4972 C.ar    1  UNL1        0.0202
      4 C          63.4263   84.2736    9.8465 C.ar    1  UNL1        0.0893
      5 N          64.4031   83.2346   10.3117 N.ar    1  UNL1       -0.2245
      6 C          64.1987   83.0323   11.7839 C.ar    1  UNL1        0.1567
      7 N          64.9632   82.0828   12.6580 N.pl3   1  UNL1       -0.3375
      8 S          63.0956   83.9464   12.2286 S.2     1  UNL1       -0.0520
      9 C          62.6183   84.7135   11.0311 C.ar    1  UNL1        0.0502
     10 C          61.5522   85.7558   10.8665 C.ar    1  UNL1        0.0142
     11 H          65.6734   81.5211   12.2714 H       1  UNL1        0.1442
     12 H          64.7548   82.0212   13.6182 H       1  UNL1        0.1442
     13 C          59.3467   87.3866    8.1391 C.3     1  UNL1        0.0742
     14 S          60.2281   87.4004    9.3527 S.3     1  UNL1       -0.1127
@<TRIPOS>BOND
     1    13    14    1
     2    14     1    1
     3     1     2   ar
     4     2     3   ar
     5     3     4   ar
     6     4     5   ar
     7     5     6   ar
     8     6     7    1
     9     6     8   ar
    10     8     9   ar
    11     9    10   ar
    12    10     1   ar
    13     9     4   ar
    14     7    11    1
    15     7    12    1
@<TRIPOS>MOLECULE
*****
 14 15 0 0 0
SMALL
GASTEIGER

@<TRIPOS>ATOM
      1 C          63.1825   85.4824   16.2193 C.ar    1  UNL1        0.0258
      2 C          64.4302   85.7526   15.4318 C.ar    1  UNL1        0.0077
      3 C          64.8412   84.8173   14.3335 C.ar    1  UNL1        0.0202
      4 C          64.0046   83.6118   14.0226 C.ar    1  UNL1        0.0893
      5 N          64.1564   82.5198   13.0055 N.ar    1  UNL1       -0.2245
      6 C          63.0025   81.5747   13.1644 C.ar    1  UNL1        0.1567
      7 N          62.7567   80.3387   12.3507 N.pl3   1  UNL1       -0.3375
      8 S          62.1375   82.0825   14.2797 S.2     1  UNL1       -0.0520
      9 C          62.7568   83.3416   14.8101 C.ar    1  UNL1        0.0502
     10 C          62.3458   84.2769   15.9084 C.ar    1  UNL1        0.0142
     11 H          63.3853   80.0867   11.6362 H       1  UNL1        0.1442
     12 H          61.9669   79.7794   12.5313 H       1  UNL1        0.1442
     13 C          62.9987   87.8930   17.1706 C.3     1  UNL1        0.0742
     14 S          62.7714   86.4176   17.3176 S.3     1  UNL1       -0.1127
@<TRIPOS>BOND
     1    13    14    1
     2    14     1    1
     3     1     2   ar
     4     2     3   ar
     5     3     4   ar
     6     4     5   ar
     7     5     6   ar
     8     6     7    1
     9     6     8   ar
    10     8     9   ar
    11     9    10   ar
    12    10     1   ar
    13     9     4   ar
    14     7    11    1
    15     7    12    1
@<TRIPOS>MOLECULE
*****
 14 15 0 0 0
SMALL
GASTEIGER

@<TRIPOS>ATOM
      1 C          63.2987   90.7270   11.8830 C.ar    1  UNL1        0.0258
      2 C          63.8130   91.5339   10.7278 C.ar    1  UNL1        0.0077
      3 C          65.0510   92.3658   10.8862 C.ar    1  UNL1        0.0202
      4 C          65.7748   92.3910   12.1998 C.ar    1  UNL1        0.0893
      5 N          67.0109   93.1109   12.6511 N.ar    1  UNL1       -0.2245
      6 C          67.2606   92.7490   14.0852 C.ar    1  UNL1        0.1567
      7 N          68.3933   93.2438   14.9351 N.pl3   1  UNL1       -0.3375
      8 S          66.1788   91.8053   14.5203 S.2     1  UNL1       -0.0520
      9 C          65.2605   91.5841   13.3549 C.ar    1  UNL1        0.0502
     10 C          64.0225   90.7521   13.1966 C.ar    1  UNL1        0.0142
     11 H          69.0573   93.8649   14.5573 H       1  UNL1        0.1442
     12 H          68.4727   92.9476   15.8706 H       1  UNL1        0.1442
     13 C          60.9854   90.3244   10.7711 C.3     1  UNL1        0.0742
     14 S          62.0607   89.8950   11.7246 S.3     1  UNL1       -0.1127
@<TRIPOS>BOND
     1    13    14    1
     2    14     1    1
     3     1     2   ar
     4     2     3   ar
     5     3     4   ar
     6     4     5   ar
     7     5     6   ar
     8     6     7    1
     9     6     8   ar
    10     8     9   ar
    11     9    10   ar
    12    10     1   ar
    13     9     4   ar
    14     7    11    1
    15     7    12    1
@<TRIPOS>MOLECULE
*****
 14 15 0 0 0
SMALL
GASTEIGER

@<TRIPOS>ATOM
      1 C          64.1866   89.9989   13.9854 C.ar    1  UNL1        0.0258
      2 C          63.3984   89.8759   12.7152 C.ar    1  UNL1        0.0077
      3 C          63.6344   90.8392   11.5898 C.ar    1  UNL1        0.0202
      4 C          64.6586   91.9254   11.7347 C.ar    1  UNL1        0.0893
      5 N          65.1070   93.0128   10.8038 N.ar    1  UNL1       -0.2245
      6 C          66.1724   93.8078   11.4988 C.ar    1  UNL1        0.1567
      7 N          66.9000   94.9911   10.9326 N.pl3   1  UNL1       -0.3375
      8 S          66.3824   93.2118   12.8591 S.2     1  UNL1       -0.0520
      9 C          65.4468   92.0484   13.0049 C.ar    1  UNL1        0.0502
     10 C          65.2108   91.0852   14.1303 C.ar    1  UNL1        0.0142
     11 H          66.6907   95.3095   10.0248 H       1  UNL1        0.1442
     12 H          67.5868   95.4494   11.4689 H       1  UNL1        0.1442
     13 C          63.1872   89.4738   16.3254 C.3     1  UNL1        0.0742
     14 S          63.9506   89.0357   15.1108 S.3     1  UNL1       -0.1127
@<TRIPOS>BOND
     1    13    14    1
     2    14     1    1
     3     1     2   ar
     4     2     3   ar
     5     3     4   ar
     6     4     5   ar
     7     5     6   ar
     8     6     7    1
     9     6     8   ar
    10     8     9   ar
    11     9    10   ar
    12    10     1   ar
    13     9     4   ar
    14     7    11    1
    15     7    12    1
@<TRIPOS>MOLECULE
*****
 14 15 0 0 0
SMALL
GASTEIGER

@<TRIPOS>ATOM
      1 C          63.6187   83.5288   11.9518 C.ar    1  UNL1        0.0258
      2 C          64.1154   83.2122   10.5724 C.ar    1  UNL1        0.0077
      3 C          63.6507   84.0277    9.4023 C.ar    1  UNL1        0.0202
      4 C          62.6892   85.1598    9.6118 C.ar    1  UNL1        0.0893
      5 N          62.0596   86.1314    8.6581 N.ar    1  UNL1       -0.2245
      6 C          61.1737   87.0485    9.4482 C.ar    1  UNL1        0.1567
      7 N          60.3502   88.1730    8.8935 N.pl3   1  UNL1       -0.3375
      8 S          61.2559   86.6438   10.8902 S.2     1  UNL1       -0.0520
      9 C          62.1925   85.4764   10.9913 C.ar    1  UNL1        0.0502
     10 C          62.6573   84.6609   12.1613 C.ar    1  UNL1        0.0142
     11 H          60.3624   88.3621    7.9274 H       1  UNL1        0.1442
     12 H          59.7977   88.7220    9.4957 H       1  UNL1        0.1442
     13 C          63.6305   81.2913   13.2722 C.3     1  UNL1        0.0742
     14 S          64.0835   82.7134   13.1219 S.3     1  UNL1       -0.1127
@<TRIPOS>BOND
     1    13    14    1
     2    14     1    1
     3     1     2   ar
     4     2     3   ar
     5     3     4   ar
     6     4     5   ar
     7     5     6   ar
     8     6     7    1
     9     6     8   ar
    10     8     9   ar
    11     9    10   ar
    12    10     1   ar
    13     9     4   ar
    14     7    11    1
    15     7    12    1
@<TRIPOS>MOLECULE
*****
 14 15 0 0 0
SMALL
GASTEIGER

@<TRIPOS>ATOM
      1 C          66.5929   92.7914   14.3681 C.ar    1  UNL1        0.0258
      2 C          66.4279   93.4783   13.0449 C.ar    1  UNL1        0.0077
      3 C          65.4518   92.9439   12.0390 C.ar    1  UNL1        0.0202
      4 C          64.6407   91.7228   12.3564 C.ar    1  UNL1        0.0893
      5 N          63.6084   90.9711   11.5695 N.ar    1  UNL1       -0.2245
      6 C          63.1353   89.8196   12.4064 C.ar    1  UNL1        0.1567
      7 N          62.1034   88.8060   12.0089 N.pl3   1  UNL1       -0.3375
      8 S          63.8753   89.8596   13.7105 S.2     1  UNL1       -0.0520
      9 C          64.8057   91.0359   13.6796 C.ar    1  UNL1        0.0502
     10 C          65.7818   91.5702   14.6854 C.ar    1  UNL1        0.0142
     11 H          61.6711   88.8638   11.1263 H       1  UNL1        0.1442
     12 H          61.8586   88.0829   12.6305 H       1  UNL1        0.1442
     13 C          68.5422   92.3990   16.0403 C.3     1  UNL1        0.0742
     14 S          67.5690   93.3257   15.3739 S.3     1  UNL1       -0.1127
@<TRIPOS>BOND
     1    13    14    1
     2    14     1    1
     3     1     2   ar
     4     2     3   ar
     5     3     4   ar
     6     4     5   ar
     7     5     6   ar
     8     6     7    1
     9     6     8   ar
    10     8     9   ar
    11     9    10   ar
    12    10     1   ar
    13     9     4   ar
    14     7    11    1
    15     7    12    1
@<TRIPOS>MOLECULE
*****
 14 15 0 0 0
SMALL
GASTEIGER

@<TRIPOS>ATOM
      1 C          62.6954   89.7995   11.3133 C.ar    1  UNL1        0.0258
      2 C          63.0009   88.4410   11.8710 C.ar    1  UNL1        0.0077
      3 C          62.3257   87.2279   11.3031 C.ar    1  UNL1        0.0202
      4 C          61.3449   87.3734   10.1775 C.ar    1  UNL1        0.0893
      5 N          60.5300   86.3674    9.4200 N.ar    1  UNL1       -0.2245
      6 C          59.7209   87.1042    8.3941 C.ar    1  UNL1        0.1567
      7 N          58.7648   86.4878    7.4163 N.pl3   1  UNL1       -0.3375
      8 S          60.0357   88.5656    8.5176 S.2     1  UNL1       -0.0520
      9 C          61.0395   88.7319    9.6199 C.ar    1  UNL1        0.0502
     10 C          61.7147   89.9450   10.1878 C.ar    1  UNL1        0.0142
     11 H          58.6246   85.5133    7.4124 H       1  UNL1        0.1442
     12 H          58.2773   87.0577    6.7784 H       1  UNL1        0.1442
     13 C          64.1255   90.9147   13.1738 C.3     1  UNL1        0.0742
     14 S          63.3707   91.0125   11.8813 S.3     1  UNL1       -0.1127
@<TRIPOS>BOND
     1    13    14    1
     2    14     1    1
     3     1     2   ar
     4     2     3   ar
     5     3     4   ar
     6     4     5   ar
     7     5     6   ar
     8     6     7    1
     9     6     8   ar
    10     8     9   ar
    11     9    10   ar
    12    10     1   ar
    13     9     4   ar
    14     7    11    1
    15     7    12    1
