@<TRIPOS>MOLECULE
*****
 24 26 0 0 0
SMALL
GASTEIGER

@<TRIPOS>ATOM
      1 C          62.1516   86.8603   10.7348 C.ar    1  UNL1        0.0801
      2 C          62.1232   86.5726    9.2629 C.ar    1  UNL1        0.0241
      3 C          62.6585   85.2716    8.7426 C.ar    1  UNL1        0.0360
      4 BR         62.6301   84.9839    7.2706 Br      1  UNL1       -0.0490
      5 C          63.2221   84.2581    9.6941 C.ar    1  UNL1        0.0099
      6 C          63.2505   84.5458   11.1660 C.ar    1  UNL1        0.0394
      7 C          63.7409   83.7453   12.3358 C.ar    1  UNL1        0.0418
      8 C          63.5088   84.5516   13.5792 C.ar    1  UNL1        0.1593
      9 O          62.8748   85.8505   13.1778 O.2     1  UNL1       -0.4511
     10 C          62.7152   85.8469   11.6863 C.ar    1  UNL1        0.1583
     11 C          63.8505   84.1326   14.9784 C.2     1  UNL1        0.1076
     12 O          64.0819   85.1702   16.0366 O.co2   1  UNL1       -0.5415
     13 O          63.9610   82.6761   15.3193 O.co2   1  UNL1       -0.5415
     14 N          61.6163   88.1613   11.2551 N.pl3   1  UNL1       -0.3317
     15 H          60.6554   88.2570   11.4466 H       1  UNL1        0.1469
     16 N          65.3319   92.7828   12.1699 N.3     1  UNL1       -0.3222
     17 C          64.4029   91.6274   11.9412 C.3     1  UNL1        0.0509
     18 C          63.6899   91.4868   10.6291 C.3     1  UNL1        0.0172
     19 C          62.7610   90.3314   10.4004 C.3     1  UNL1        0.0208
     20 C          62.5452   89.3167   11.4838 C.3     1  UNL1        0.0692
     21 C          63.2583   89.4574   12.7960 C.3     1  UNL1        0.0208
     22 C          64.1871   90.6127   13.0247 C.3     1  UNL1        0.0172
     23 H          65.3584   93.3683   11.3351 H       1  UNL1        0.1188
     24 H          66.2687   92.4317   12.3689 H       1  UNL1        0.1188
@<TRIPOS>UNITY_ATOM_ATTR
12 1
charge -1
@<TRIPOS>BOND
     1    17    16    1
     2    17    18    1
     3    18    19    1
     4    19    20    1
     5    20    14    1
     6    14     1    1
     7     1     2   ar
     8     2     3   ar
     9     3     4    1
    10     3     5   ar
    11     5     6   ar
    12     6     7   ar
    13     7     8   ar
    14     8    11    1
    15    11    12   ar
    16    11    13   ar
    17     8     9   ar
    18     9    10   ar
    19    20    21    1
    20    21    22    1
    21    22    17    1
    22    10     1   ar
    23    10     6   ar
    24    16    23    1
    25    16    24    1
    26    14    15    1
@<TRIPOS>MOLECULE
*****
 24 26 0 0 0
SMALL
GASTEIGER

@<TRIPOS>ATOM
      1 C          61.3079   89.0470   10.9137 C.ar    1  UNL1        0.0801
      2 C          60.5090   89.3551    9.6821 C.ar    1  UNL1        0.0241
      3 C          60.2170   88.2715    8.6870 C.ar    1  UNL1        0.0360
      4 BR         59.4181   88.5797    7.4553 Br      1  UNL1       -0.0490
      5 C          60.7237   86.8796    8.9235 C.ar    1  UNL1        0.0099
      6 C          61.5225   86.5714   10.1551 C.ar    1  UNL1        0.0394
      7 C          62.1491   85.3030   10.6537 C.ar    1  UNL1        0.0418
      8 C          62.8284   85.6029   11.9570 C.ar    1  UNL1        0.1593
      9 O          62.6217   87.0565   12.2639 O.2     1  UNL1       -0.4511
     10 C          61.8146   87.6551   11.1502 C.ar    1  UNL1        0.1583
     11 C          63.5822   84.6214   12.8046 C.2     1  UNL1        0.1076
     12 O          64.3611   83.5147   12.1577 O.co2   1  UNL1       -0.5415
     13 O          63.5570   84.7466   14.2992 O.co2   1  UNL1       -0.5415
     14 N          61.6000   90.1307   11.9088 N.pl3   1  UNL1       -0.3317
     15 H          60.9257   90.3741   12.5837 H       1  UNL1        0.1469
     16 N          66.8773   92.9825   11.7763 N.3     1  UNL1       -0.3222
     17 C          65.5579   92.2695   11.8095 C.3     1  UNL1        0.0509
     18 C          65.0512   91.6892   13.0964 C.3     1  UNL1        0.0172
     19 C          63.7318   90.9762   13.1296 C.3     1  UNL1        0.0208
     20 C          62.9193   90.8436   11.8757 C.3     1  UNL1        0.0692
     21 C          63.4260   91.4239   10.5886 C.3     1  UNL1        0.0208
     22 C          64.7453   92.1369   10.5555 C.3     1  UNL1        0.0172
     23 H          67.2895   92.9784   12.7093 H       1  UNL1        0.1188
     24 H          66.7358   93.9455   11.4713 H       1  UNL1        0.1188
@<TRIPOS>UNITY_ATOM_ATTR
12 1
charge -1
@<TRIPOS>BOND
     1    17    16    1
     2    17    18    1
     3    18    19    1
     4    19    20    1
     5    20    14    1
     6    14     1    1
     7     1     2   ar
     8     2     3   ar
     9     3     4    1
    10     3     5   ar
    11     5     6   ar
    12     6     7   ar
    13     7     8   ar
    14     8    11    1
    15    11    12   ar
    16    11    13   ar
    17     8     9   ar
    18     9    10   ar
    19    20    21    1
    20    21    22    1
    21    22    17    1
    22    10     1   ar
    23    10     6   ar
    24    16    23    1
    25    16    24    1
    26    14    15    1
@<TRIPOS>MOLECULE
*****
 24 26 0 0 0
SMALL
GASTEIGER

@<TRIPOS>ATOM
      1 C          62.1405   86.3162   10.2045 C.ar    1  UNL1        0.0801
      2 C          61.1225   86.1001    9.1243 C.ar    1  UNL1        0.0241
      3 C          60.0999   87.1584    8.8348 C.ar    1  UNL1        0.0360
      4 BR         59.0818   86.9422    7.7545 Br      1  UNL1       -0.0490
      5 C          60.0951   88.4331    9.6256 C.ar    1  UNL1        0.0099
      6 C          61.1131   88.6493   10.7058 C.ar    1  UNL1        0.0394
      7 C          61.3534   89.7950   11.6437 C.ar    1  UNL1        0.0418
      8 C          62.5247   89.4446   12.5128 C.ar    1  UNL1        0.1593
      9 O          63.0082   88.0824   12.1121 O.2     1  UNL1       -0.4511
     10 C          62.1358   87.5909   10.9953 C.ar    1  UNL1        0.1583
     11 C          63.1097   90.3053   13.5930 C.2     1  UNL1        0.1076
     12 O          62.8403   89.9871   15.0339 O.co2   1  UNL1       -0.5415
     13 O          63.9640   91.4843   13.2324 O.co2   1  UNL1       -0.5415
     14 N          63.1633   85.2578   10.4940 N.pl3   1  UNL1       -0.3317
     15 H          63.9959   85.2215    9.9699 H       1  UNL1        0.1469
     16 N          62.1796   81.2457   14.8454 N.3     1  UNL1       -0.3222
     17 C          62.4255   82.2487   13.7575 C.3     1  UNL1        0.0509
     18 C          62.5705   81.7929   12.3359 C.3     1  UNL1        0.0172
     19 C          62.8164   82.7959   11.2480 C.3     1  UNL1        0.0208
     20 C          62.9173   84.2548   11.5818 C.3     1  UNL1        0.0692
     21 C          62.7724   84.7107   13.0035 C.3     1  UNL1        0.0208
     22 C          62.5265   83.7077   14.0913 C.3     1  UNL1        0.0172
     23 H          62.1401   80.3096   14.4423 H       1  UNL1        0.1188
     24 H          61.2942   81.4547   15.3069 H       1  UNL1        0.1188
@<TRIPOS>UNITY_ATOM_ATTR
12 1
charge -1
@<TRIPOS>BOND
     1    17    16    1
     2    17    18    1
     3    18    19    1
     4    19    20    1
     5    20    14    1
     6    14     1    1
     7     1     2   ar
     8     2     3   ar
     9     3     4    1
    10     3     5   ar
    11     5     6   ar
    12     6     7   ar
    13     7     8   ar
    14     8    11    1
    15    11    12   ar
    16    11    13   ar
    17     8     9   ar
    18     9    10   ar
    19    20    21    1
    20    21    22    1
    21    22    17    1
    22    10     1   ar
    23    10     6   ar
    24    16    23    1
    25    16    24    1
    26    14    15    1
@<TRIPOS>MOLECULE
*****
 24 26 0 0 0
SMALL
GASTEIGER

@<TRIPOS>ATOM
      1 C          62.9468   86.3932   12.1989 C.ar    1  UNL1        0.0801
      2 C          62.2520   85.7999   11.0092 C.ar    1  UNL1        0.0241
      3 C          61.7132   86.6941    9.9323 C.ar    1  UNL1        0.0360
      4 BR         61.0185   86.1008    8.7426 Br      1  UNL1       -0.0490
      5 C          61.8691   88.1818   10.0449 C.ar    1  UNL1        0.0099
      6 C          62.5638   88.7751   11.2346 C.ar    1  UNL1        0.0394
      7 C          62.8644   90.1941   11.6168 C.ar    1  UNL1        0.0418
      8 C          63.5889   90.1768   12.9301 C.ar    1  UNL1        0.1593
      9 O          63.7362   88.7471   13.3595 O.2     1  UNL1       -0.4511
     10 C          63.1026   87.8808   12.3116 C.ar    1  UNL1        0.1583
     11 C          64.0800   91.3782   13.6820 C.2     1  UNL1        0.1076
     12 O          63.7042   91.5671   15.1218 O.co2   1  UNL1       -0.5415
     13 O          64.9470   92.3908   12.9941 O.co2   1  UNL1       -0.5415
     14 N          63.4856   85.4989   13.2759 N.pl3   1  UNL1       -0.3317
     15 H          64.0443   85.8748   13.9941 H       1  UNL1        0.1469
     16 N          62.2358   79.6309   13.2070 N.3     1  UNL1       -0.3222
     17 C          62.5483   81.0980   13.2242 C.3     1  UNL1        0.0509
     18 C          63.4508   81.6848   12.1798 C.3     1  UNL1        0.0172
     19 C          63.7633   83.1519   12.1970 C.3     1  UNL1        0.0208
     20 C          63.1732   84.0319   13.2587 C.3     1  UNL1        0.0692
     21 C          62.2706   83.4451   14.3032 C.3     1  UNL1        0.0208
     22 C          61.9582   81.9781   14.2860 C.3     1  UNL1        0.0172
     23 H          62.7175   79.1898   12.4235 H       1  UNL1        0.1188
     24 H          61.2296   79.4988   13.1054 H       1  UNL1        0.1188
@<TRIPOS>UNITY_ATOM_ATTR
12 1
charge -1
@<TRIPOS>BOND
     1    17    16    1
     2    17    18    1
     3    18    19    1
     4    19    20    1
     5    20    14    1
     6    14     1    1
     7     1     2   ar
     8     2     3   ar
     9     3     4    1
    10     3     5   ar
    11     5     6   ar
    12     6     7   ar
    13     7     8   ar
    14     8    11    1
    15    11    12   ar
    16    11    13   ar
    17     8     9   ar
    18     9    10   ar
    19    20    21    1
    20    21    22    1
    21    22    17    1
    22    10     1   ar
    23    10     6   ar
    24    16    23    1
    25    16    24    1
    26    14    15    1
@<TRIPOS>MOLECULE
*****
 24 26 0 0 0
SMALL
GASTEIGER

@<TRIPOS>ATOM
      1 C          63.9507   90.6949   14.2647 C.ar    1  UNL1        0.0801
      2 C          65.0983   91.6605   14.2850 C.ar    1  UNL1        0.0241
      3 C          65.5365   92.3315   13.0172 C.ar    1  UNL1        0.0360
      4 BR         66.6843   93.2972   13.0376 Br      1  UNL1       -0.0490
      5 C          64.8271   92.0370   11.7287 C.ar    1  UNL1        0.0099
      6 C          63.6794   91.0713   11.7083 C.ar    1  UNL1        0.0394
      7 C          62.7951   90.5867   10.5979 C.ar    1  UNL1        0.0418
      8 C          61.8104   89.6162   11.1795 C.ar    1  UNL1        0.1593
      9 O          62.0861   89.5010   12.6495 O.2     1  UNL1       -0.4511
     10 C          63.2412   90.4003   12.9763 C.ar    1  UNL1        0.1583
     11 C          60.7382   88.8886   10.4239 C.2     1  UNL1        0.1076
     12 O          60.3533   87.4949   10.8232 O.co2   1  UNL1       -0.5415
     13 O          60.0508   89.5547    9.2690 O.co2   1  UNL1       -0.5415
     14 N          63.5125   90.0239   15.5326 N.pl3   1  UNL1       -0.3317
     15 H          63.1429   90.5601   16.2710 H       1  UNL1        0.1469
     16 N          64.0119   84.0721   16.1046 N.3     1  UNL1       -0.3222
     17 C          63.8871   85.5601   15.9616 C.3     1  UNL1        0.0509
     18 C          64.5017   86.2544   14.7826 C.3     1  UNL1        0.0172
     19 C          64.3769   87.7424   14.6396 C.3     1  UNL1        0.0208
     20 C          63.6374   88.5360   15.6756 C.3     1  UNL1        0.0692
     21 C          63.0226   87.8417   16.8547 C.3     1  UNL1        0.0208
     22 C          63.1475   86.3537   16.9976 C.3     1  UNL1        0.0172
     23 H          64.5415   83.6981   15.3172 H       1  UNL1        0.1188
     24 H          63.0822   83.6527   16.1190 H       1  UNL1        0.1188
@<TRIPOS>UNITY_ATOM_ATTR
12 1
charge -1
@<TRIPOS>BOND
     1    17    16    1
     2    17    18    1
     3    18    19    1
     4    19    20    1
     5    20    14    1
     6    14     1    1
     7     1     2   ar
     8     2     3   ar
     9     3     4    1
    10     3     5   ar
    11     5     6   ar
    12     6     7   ar
    13     7     8   ar
    14     8    11    1
    15    11    12   ar
    16    11    13   ar
    17     8     9   ar
    18     9    10   ar
    19    20    21    1
    20    21    22    1
    21    22    17    1
    22    10     1   ar
    23    10     6   ar
    24    16    23    1
    25    16    24    1
    26    14    15    1
@<TRIPOS>MOLECULE
*****
 24 26 0 0 0
SMALL
GASTEIGER

@<TRIPOS>ATOM
      1 C          63.7659   90.2604   14.1546 C.ar    1  UNL1        0.0801
      2 C          62.8606   90.0732   12.9734 C.ar    1  UNL1        0.0241
      3 C          63.1587   90.7743   11.6814 C.ar    1  UNL1        0.0360
      4 BR         62.2534   90.5870   10.5001 Br      1  UNL1       -0.0490
      5 C          64.3623   91.6627   11.5704 C.ar    1  UNL1        0.0099
      6 C          65.2676   91.8500   12.7517 C.ar    1  UNL1        0.0394
      7 C          66.5177   92.6573   12.9401 C.ar    1  UNL1        0.0418
      8 C          66.9921   92.4551   14.3486 C.ar    1  UNL1        0.1593
      9 O          66.0353   91.5228   15.0308 O.2     1  UNL1       -0.4511
     10 C          64.9694   91.1488   14.0438 C.ar    1  UNL1        0.1583
     11 C          68.2097   93.0761   14.9666 C.2     1  UNL1        0.1076
     12 O          68.0649   94.0223   16.1215 O.co2   1  UNL1       -0.5415
     13 O          69.5720   92.7510   14.4297 O.co2   1  UNL1       -0.5415
     14 N          63.4677   89.5593   15.4467 N.pl3   1  UNL1       -0.3317
     15 H          63.1595   90.0748   16.2268 H       1  UNL1        0.1469
     16 N          64.1536   83.6130   15.8611 N.3     1  UNL1       -0.3222
     17 C          63.9821   85.0997   15.7576 C.3     1  UNL1        0.0509
     18 C          63.2372   85.8449   16.8251 C.3     1  UNL1        0.0172
     19 C          63.0657   87.3315   16.7215 C.3     1  UNL1        0.0208
     20 C          63.6392   88.0728   15.5503 C.3     1  UNL1        0.0692
     21 C          64.3842   87.3275   14.4827 C.3     1  UNL1        0.0208
     22 C          64.5556   85.8410   14.5863 C.3     1  UNL1        0.0172
     23 H          63.7045   83.2775   16.7132 H       1  UNL1        0.1188
     24 H          65.1478   83.3866   15.8890 H       1  UNL1        0.1188
@<TRIPOS>UNITY_ATOM_ATTR
12 1
charge -1
@<TRIPOS>BOND
     1    17    16    1
     2    17    18    1
     3    18    19    1
     4    19    20    1
     5    20    14    1
     6    14     1    1
     7     1     2   ar
     8     2     3   ar
     9     3     4    1
    10     3     5   ar
    11     5     6   ar
    12     6     7   ar
    13     7     8   ar
    14     8    11    1
    15    11    12   ar
    16    11    13   ar
    17     8     9   ar
    18     9    10   ar
    19    20    21    1
    20    21    22    1
    21    22    17    1
    22    10     1   ar
    23    10     6   ar
    24    16    23    1
    25    16    24    1
    26    14    15    1
@<TRIPOS>MOLECULE
*****
 24 26 0 0 0
SMALL
GASTEIGER

@<TRIPOS>ATOM
      1 C          62.5191   86.5019   11.7042 C.ar    1  UNL1        0.0801
      2 C          62.4993   85.0110   11.8676 C.ar    1  UNL1        0.0241
      3 C          63.1737   84.3768   13.0477 C.ar    1  UNL1        0.0360
      4 BR         63.1539   82.8857   13.2110 Br      1  UNL1       -0.0490
      5 C          63.8680   85.2334   14.0646 C.ar    1  UNL1        0.0099
      6 C          63.8879   86.7244   13.9013 C.ar    1  UNL1        0.0394
      7 C          64.4884   87.8174   14.7347 C.ar    1  UNL1        0.0418
      8 C          64.1851   89.1272   14.0696 C.ar    1  UNL1        0.1593
      9 O          63.3971   88.8437   12.8251 O.2     1  UNL1       -0.4511
     10 C          63.2134   87.3586   12.7211 C.ar    1  UNL1        0.1583
     11 C          64.5974   90.4826   14.5624 C.2     1  UNL1        0.1076
     12 O          65.9752   90.9993   14.2714 O.co2   1  UNL1       -0.5415
     13 O          63.6319   91.3214   15.3462 O.co2   1  UNL1       -0.5415
     14 N          61.8446   87.1362   10.5241 N.pl3   1  UNL1       -0.3317
     15 H          61.4926   88.0531   10.5923 H       1  UNL1        0.1469
     16 N          61.2919   84.0854    5.3872 N.3     1  UNL1       -0.3222
     17 C          61.4302   84.8481    6.6715 C.3     1  UNL1        0.0509
     18 C          62.7552   84.9033    7.3721 C.3     1  UNL1        0.0172
     19 C          62.8935   85.6660    8.6564 C.3     1  UNL1        0.0208
     20 C          61.7065   86.3735    9.2399 C.3     1  UNL1        0.0692
     21 C          60.3813   86.3183    8.5392 C.3     1  UNL1        0.0208
     22 C          60.2431   85.5556    7.2550 C.3     1  UNL1        0.0172
     23 H          62.1905   83.6710    5.1394 H       1  UNL1        0.1188
     24 H          60.9938   84.7192    4.6457 H       1  UNL1        0.1188
@<TRIPOS>UNITY_ATOM_ATTR
12 1
charge -1
@<TRIPOS>BOND
     1    17    16    1
     2    17    18    1
     3    18    19    1
     4    19    20    1
     5    20    14    1
     6    14     1    1
     7     1     2   ar
     8     2     3   ar
     9     3     4    1
    10     3     5   ar
    11     5     6   ar
    12     6     7   ar
    13     7     8   ar
    14     8    11    1
    15    11    12   ar
    16    11    13   ar
    17     8     9   ar
    18     9    10   ar
    19    20    21    1
    20    21    22    1
    21    22    17    1
    22    10     1   ar
    23    10     6   ar
    24    16    23    1
    25    16    24    1
    26    14    15    1
@<TRIPOS>MOLECULE
*****
 24 26 0 0 0
SMALL
GASTEIGER

@<TRIPOS>ATOM
      1 C          60.9317   87.6062   10.8336 C.ar    1  UNL1        0.0801
      2 C          60.1258   87.5365    9.5704 C.ar    1  UNL1        0.0241
      3 C          60.1458   88.6833    8.6038 C.ar    1  UNL1        0.0360
      4 BR         59.3398   88.6137    7.3406 Br      1  UNL1       -0.0490
      5 C          60.9717   89.8999    8.9004 C.ar    1  UNL1        0.0099
      6 C          61.7776   89.9695   10.1636 C.ar    1  UNL1        0.0394
      7 C          62.6798   91.0302   10.7213 C.ar    1  UNL1        0.0418
      8 C          63.2174   90.5388   12.0326 C.ar    1  UNL1        0.1593
      9 O          62.6475   89.1745   12.2853 O.2     1  UNL1       -0.4511
     10 C          61.7576   88.8227   11.1302 C.ar    1  UNL1        0.1583
     11 C          64.1596   91.2814   12.9331 C.2     1  UNL1        0.1076
     12 O          65.3967   91.9132   12.3672 O.co2   1  UNL1       -0.5415
     13 O          63.8646   91.3921   14.3997 O.co2   1  UNL1       -0.5415
     14 N          60.9117   86.4593   11.8002 N.pl3   1  UNL1       -0.3317
     15 H          60.1949   86.3942   12.4719 H       1  UNL1        0.1469
     16 N          65.2000   82.2690   11.5728 N.3     1  UNL1       -0.3222
     17 C          64.1279   83.3166   11.6297 C.3     1  UNL1        0.0509
     18 C          63.6290   83.8079   12.9562 C.3     1  UNL1        0.0172
     19 C          62.5569   84.8555   13.0131 C.3     1  UNL1        0.0208
     20 C          61.9837   85.4117   11.7434 C.3     1  UNL1        0.0692
     21 C          62.4826   84.9204   10.4168 C.3     1  UNL1        0.0208
     22 C          63.5547   83.8729   10.3600 C.3     1  UNL1        0.0172
     23 H          65.4705   82.0075   12.5209 H       1  UNL1        0.1188
     24 H          66.0112   82.6393   11.0777 H       1  UNL1        0.1188
@<TRIPOS>UNITY_ATOM_ATTR
12 1
charge -1
@<TRIPOS>BOND
     1    17    16    1
     2    17    18    1
     3    18    19    1
     4    19    20    1
     5    20    14    1
     6    14     1    1
     7     1     2   ar
     8     2     3   ar
     9     3     4    1
    10     3     5   ar
    11     5     6   ar
    12     6     7   ar
    13     7     8   ar
    14     8    11    1
    15    11    12   ar
    16    11    13   ar
    17     8     9   ar
    18     9    10   ar
    19    20    21    1
    20    21    22    1
    21    22    17    1
    22    10     1   ar
    23    10     6   ar
    24    16    23    1
    25    16    24    1
    26    14    15    1
@<TRIPOS>MOLECULE
*****
 24 26 0 0 0
SMALL
GASTEIGER

@<TRIPOS>ATOM
      1 C          61.6121   88.5437   11.1892 C.ar    1  UNL1        0.0801
      2 C          60.8716   88.9166    9.9392 C.ar    1  UNL1        0.0241
      3 C          60.5797   87.8740    8.9012 C.ar    1  UNL1        0.0360
      4 BR         59.8391   88.2470    7.6511 Br      1  UNL1       -0.0490
      5 C          61.0283   86.4584    9.1130 C.ar    1  UNL1        0.0099
      6 C          61.7688   86.0855   10.3630 C.ar    1  UNL1        0.0394
      7 C          62.3316   84.7813   10.8449 C.ar    1  UNL1        0.0418
      8 C          62.9713   85.0179   12.1809 C.ar    1  UNL1        0.1593
      9 O          62.8039   86.4683   12.5246 O.2     1  UNL1       -0.4511
     10 C          62.0608   87.1282   11.4011 C.ar    1  UNL1        0.1583
     11 C          63.6579   83.9853   13.0249 C.2     1  UNL1        0.1076
     12 O          65.0497   84.2316   13.5269 O.co2   1  UNL1       -0.5415
     13 O          62.9526   82.7064   13.3670 O.co2   1  UNL1       -0.5415
     14 N          61.9041   89.5864   12.2273 N.pl3   1  UNL1       -0.3317
     15 H          61.3036   89.6933   13.0001 H       1  UNL1        0.1469
     16 N          66.7316   93.1057   11.6699 N.3     1  UNL1       -0.3222
     17 C          65.5246   92.2258   11.8092 C.3     1  UNL1        0.0509
     18 C          64.5762   92.0659   10.6583 C.3     1  UNL1        0.0172
     19 C          63.3693   91.1861   10.7976 C.3     1  UNL1        0.0208
     20 C          63.1109   90.4662   12.0879 C.3     1  UNL1        0.0692
     21 C          64.0594   90.6261   13.2390 C.3     1  UNL1        0.0208
     22 C          65.2662   91.5059   13.0997 C.3     1  UNL1        0.0172
     23 H          66.7497   93.5124   10.7347 H       1  UNL1        0.1188
     24 H          67.5752   92.5513   11.8161 H       1  UNL1        0.1188
@<TRIPOS>UNITY_ATOM_ATTR
12 1
charge -1
@<TRIPOS>BOND
     1    17    16    1
     2    17    18    1
     3    18    19    1
     4    19    20    1
     5    20    14    1
     6    14     1    1
     7     1     2   ar
     8     2     3   ar
     9     3     4    1
    10     3     5   ar
    11     5     6   ar
    12     6     7   ar
    13     7     8   ar
    14     8    11    1
    15    11    12   ar
    16    11    13   ar
    17     8     9   ar
    18     9    10   ar
    19    20    21    1
    20    21    22    1
    21    22    17    1
    22    10     1   ar
    23    10     6   ar
    24    16    23    1
    25    16    24    1
    26    14    15    1
