@<TRIPOS>MOLECULE
*****
 49 53 0 0 0
SMALL
GASTEIGER

@<TRIPOS>ATOM
      1 C          62.7427   85.1177    9.0646 C.ar    1  UNL1        0.0574
      2 C          62.0683   85.7423   10.2501 C.ar    1  UNL1        0.0786
      3 N          61.0280   86.8038   10.0481 N.ar    1  UNL1       -0.2979
      4 C          60.6620   87.2408    8.6606 C.ar    1  UNL1        0.1750
      5 N          61.3363   86.6164    7.4752 N.ar    1  UNL1       -0.1847
      6 C          62.3767   85.5548    7.6772 C.ar    1  UNL1        0.2786
      7 O          63.0510   84.9304    6.4918 O.2     1  UNL1       -0.2654
      8 C          63.7830   84.0562    9.2667 C.3     1  UNL1        0.0622
      9 C          63.5983   81.3840   12.8826 C.ar    1  UNL1        0.3201
     10 N          64.3835   82.6610   12.9331 N.ar    1  UNL1       -0.1930
     11 C          64.4451   83.5518   11.7278 C.ar    1  UNL1        0.1012
     12 C          63.7214   83.1655   10.4720 C.ar    1  UNL1        0.0209
     13 C          62.9362   81.8885   10.4215 C.ar    1  UNL1        0.1012
     14 N          62.8747   80.9977   11.6268 N.ar    1  UNL1       -0.1930
     15 C          62.3338   79.6279   14.3203 C.3     1  UNL1        0.2559
     16 O          63.5367   80.4932   14.0879 O.3     1  UNL1       -0.4426
     17 C          60.3536   87.4283   11.2335 C.3     1  UNL1        0.1934
     18 C          61.0038   88.5758   11.9480 C.2     1  UNL1        0.2494
     19 O          60.3092   89.9032   12.0228 O.2     1  UNL1       -0.2727
     20 N          62.3486   88.3959   12.5875 N.am    1  UNL1       -0.2655
     21 C          63.0432   87.0686   12.5126 C.3     1  UNL1        0.1796
     22 C          63.0161   86.1404   13.6906 C.2     1  UNL1        0.2460
     23 O          62.1173   84.9396   13.6789 O.2     1  UNL1       -0.2730
     24 N          63.8880   86.4131   14.8805 N.am    1  UNL1       -0.2746
     25 C          63.8609   85.4849   16.0585 C.3     1  UNL1        0.1150
     26 C          64.7868   87.6138   14.8922 C.3     1  UNL1        0.1150
     27 C          62.9989   89.5434   13.3019 C.3     1  UNL1        0.1207
     28 C          63.7416   90.5880   12.5228 C.ar    1  UNL1       -0.0023
     29 C          63.3792   90.8555   11.0920 C.ar    1  UNL1       -0.0026
     30 C          64.1219   91.9001   10.3128 C.ar    1  UNL1       -0.0003
     31 C          65.2271   92.6773   10.9644 C.ar    1  UNL1       -0.0000
     32 C          65.5896   92.4098   12.3951 C.ar    1  UNL1       -0.0003
     33 C          64.8469   91.3652   13.1743 C.ar    1  UNL1       -0.0026
     34 C          65.9698   93.7219   10.1852 C.ar    1  UNL1        0.0001
     35 C          67.1663   93.3373    9.3663 C.ar    1  UNL1        0.0009
     36 C          67.9091   94.3819    8.5871 C.ar    1  UNL1        0.0114
     37 C          67.4553   95.8111    8.6268 C.ar    1  UNL1        0.0577
     38 CL         68.1981   96.8557    7.8476 Cl      1  UNL1       -0.0822
     39 C          66.2589   96.1957    9.4457 C.ar    1  UNL1        0.0114
     40 C          65.5161   95.1510   10.2249 C.ar    1  UNL1        0.0009
     41 S          59.6216   88.3024    8.4586 S.3     1  UNL1       -0.0724
     42 C          58.8872   88.3942    7.1539 C.3     1  UNL1        0.0913
     43 C          59.0560   89.6028    6.2817 C.ar    1  UNL1       -0.0108
     44 C          60.4249   90.0147    5.8276 C.ar    1  UNL1       -0.0011
     45 C          60.5938   91.2233    4.9554 C.ar    1  UNL1        0.0293
     46 C          59.3936   92.0200    4.5372 C.ar    1  UNL1        0.1401
     47 F          59.5623   93.2286    3.6650 F       1  UNL1       -0.2042
     48 C          58.0245   91.6081    4.9914 C.ar    1  UNL1        0.0293
     49 C          57.8558   90.3995    5.8636 C.ar    1  UNL1       -0.0011
@<TRIPOS>BOND
     1    15    16    1
     2    16     9    1
     3     9    10   ar
     4    10    11   ar
     5    11    12   ar
     6    12     8    1
     7     8     1    1
     8     1     2   ar
     9     2     3   ar
    10     3    17    1
    11    17    18    1
    12    18    19    2
    13    18    20   am
    14    20    21    1
    15    21    22    1
    16    22    23    2
    17    22    24   am
    18    24    25    1
    19    24    26    1
    20    20    27    1
    21    27    28    1
    22    28    29   ar
    23    29    30   ar
    24    30    31   ar
    25    31    34    1
    26    34    35   ar
    27    35    36   ar
    28    36    37   ar
    29    37    38    1
    30    37    39   ar
    31    39    40   ar
    32    31    32   ar
    33    32    33   ar
    34     3     4   ar
    35     4    41    1
    36    41    42    1
    37    42    43    1
    38    43    44   ar
    39    44    45   ar
    40    45    46   ar
    41    46    47    1
    42    46    48   ar
    43    48    49   ar
    44     4     5   ar
    45     5     6   ar
    46     6     7    2
    47    12    13   ar
    48    13    14   ar
    49    14     9   ar
    50     6     1   ar
    51    33    28   ar
    52    49    43   ar
    53    40    34   ar
@<TRIPOS>MOLECULE
*****
 49 53 0 0 0
SMALL
GASTEIGER

@<TRIPOS>ATOM
      1 C          63.6697   90.1421   12.9342 C.ar    1  UNL1        0.0574
      2 C          63.0800   89.7033   11.6266 C.ar    1  UNL1        0.0786
      3 N          62.7948   88.2511   11.3821 N.ar    1  UNL1       -0.2979
      4 C          63.0993   87.2377   12.4452 C.ar    1  UNL1        0.1750
      5 N          63.6889   87.6764   13.7528 N.ar    1  UNL1       -0.1847
      6 C          63.9741   89.1287   13.9973 C.ar    1  UNL1        0.2786
      7 O          64.5638   89.5674   15.3049 O.2     1  UNL1       -0.2654
      8 C          63.9548   91.5943   13.1787 C.3     1  UNL1        0.0622
      9 C          67.0061   93.7426   10.6638 C.ar    1  UNL1        0.3201
     10 N          65.7487   93.2205   10.0342 N.ar    1  UNL1       -0.1930
     11 C          64.7316   92.5044   10.8725 C.ar    1  UNL1        0.1012
     12 C          64.9719   92.3104   12.3404 C.ar    1  UNL1        0.0209
     13 C          66.2293   92.8325   12.9699 C.ar    1  UNL1        0.1012
     14 N          67.2464   93.5486   12.1316 N.ar    1  UNL1       -0.1930
     15 C          67.5899   95.2185    8.6069 C.3     1  UNL1        0.2559
     16 O          68.0231   94.4587    9.8255 O.3     1  UNL1       -0.4426
     17 C          62.2051   87.8123   10.0745 C.3     1  UNL1        0.1934
     18 C          61.1569   88.6511    9.4054 C.2     1  UNL1        0.2494
     19 O          61.2024   90.1456    9.5262 O.2     1  UNL1       -0.2727
     20 N          60.0632   87.9954    8.6156 N.am    1  UNL1       -0.2655
     21 C          60.0177   86.5010    8.4948 C.3     1  UNL1        0.1796
     22 C          60.5001   85.8349    7.2404 C.2     1  UNL1        0.2460
     23 O          59.6386   85.8344    6.0125 O.2     1  UNL1       -0.2730
     24 N          61.8441   85.1692    7.2140 N.am    1  UNL1       -0.2746
     25 C          62.3265   84.5030    5.9596 C.3     1  UNL1        0.1150
     26 C          62.7056   85.1696    8.4419 C.3     1  UNL1        0.1150
     27 C          59.0149   88.8342    7.9465 C.3     1  UNL1        0.1207
     28 C          59.3799   89.6974    6.7754 C.ar    1  UNL1       -0.0023
     29 C          58.3236   90.5046    6.0805 C.ar    1  UNL1       -0.0026
     30 C          58.6886   91.3678    4.9093 C.ar    1  UNL1       -0.0003
     31 C          60.1099   91.4238    4.4330 C.ar    1  UNL1       -0.0000
     32 C          61.1661   90.6167    5.1278 C.ar    1  UNL1       -0.0003
     33 C          60.8012   89.7535    6.2990 C.ar    1  UNL1       -0.0026
     34 C          60.4749   92.2870    3.2619 C.ar    1  UNL1        0.0001
     35 C          61.9093   92.4138    2.8417 C.ar    1  UNL1        0.0009
     36 C          62.2743   93.2770    1.6706 C.ar    1  UNL1        0.0114
     37 C          61.2049   94.0135    0.9195 C.ar    1  UNL1        0.0577
     38 CL         61.5700   94.8767   -0.2517 Cl      1  UNL1       -0.0822
     39 C          59.7706   93.8867    1.3396 C.ar    1  UNL1        0.0114
     40 C          59.4055   93.0235    2.5108 C.ar    1  UNL1        0.0009
     41 S          62.8141   85.7854   12.2007 S.3     1  UNL1       -0.0724
     42 C          63.3090   84.7508   13.1674 C.3     1  UNL1        0.0913
     43 C          63.1190   83.2932   12.8686 C.ar    1  UNL1       -0.0108
     44 C          62.7303   82.3472   13.9657 C.ar    1  UNL1       -0.0011
     45 C          62.5403   80.8895   13.6669 C.ar    1  UNL1        0.0293
     46 C          62.7388   80.3781   12.2708 C.ar    1  UNL1        0.1401
     47 F          62.5488   78.9205   11.9719 F       1  UNL1       -0.2042
     48 C          63.1275   81.3242   11.1736 C.ar    1  UNL1        0.0293
     49 C          63.3175   82.7818   11.4725 C.ar    1  UNL1       -0.0011
@<TRIPOS>BOND
     1    15    16    1
     2    16     9    1
     3     9    10   ar
     4    10    11   ar
     5    11    12   ar
     6    12     8    1
     7     8     1    1
     8     1     2   ar
     9     2     3   ar
    10     3    17    1
    11    17    18    1
    12    18    19    2
    13    18    20   am
    14    20    21    1
    15    21    22    1
    16    22    23    2
    17    22    24   am
    18    24    25    1
    19    24    26    1
    20    20    27    1
    21    27    28    1
    22    28    29   ar
    23    29    30   ar
    24    30    31   ar
    25    31    34    1
    26    34    35   ar
    27    35    36   ar
    28    36    37   ar
    29    37    38    1
    30    37    39   ar
    31    39    40   ar
    32    31    32   ar
    33    32    33   ar
    34     3     4   ar
    35     4    41    1
    36    41    42    1
    37    42    43    1
    38    43    44   ar
    39    44    45   ar
    40    45    46   ar
    41    46    47    1
    42    46    48   ar
    43    48    49   ar
    44     4     5   ar
    45     5     6   ar
    46     6     7    2
    47    12    13   ar
    48    13    14   ar
    49    14     9   ar
    50     6     1   ar
    51    33    28   ar
    52    49    43   ar
    53    40    34   ar
@<TRIPOS>MOLECULE
*****
 49 53 0 0 0
SMALL
GASTEIGER

@<TRIPOS>ATOM
      1 C          63.6327   90.0982   13.0073 C.ar    1  UNL1        0.0574
      2 C          63.1086   89.7067   11.6574 C.ar    1  UNL1        0.0786
      3 N          62.8263   88.2657   11.3515 N.ar    1  UNL1       -0.2979
      4 C          63.0681   87.2160   12.3954 C.ar    1  UNL1        0.1750
      5 N          63.5922   87.6074   13.7452 N.ar    1  UNL1       -0.1847
      6 C          63.8745   89.0485   14.0512 C.ar    1  UNL1        0.2786
      7 O          64.3985   89.4399   15.4011 O.2     1  UNL1       -0.2654
      8 C          63.9149   91.5392   13.3133 C.3     1  UNL1        0.0622
      9 C          68.0412   92.8020   14.5899 C.ar    1  UNL1        0.3201
     10 N          66.9488   92.6682   15.6091 N.ar    1  UNL1       -0.1930
     11 C          65.5734   92.2472   15.1836 C.ar    1  UNL1        0.1012
     12 C          65.2904   91.9601   13.7388 C.ar    1  UNL1        0.0209
     13 C          66.3827   92.0940   12.7196 C.ar    1  UNL1        0.1012
     14 N          67.7581   92.5149   13.1451 N.ar    1  UNL1       -0.1930
     15 C          69.5868   94.2164   16.1263 C.3     1  UNL1        0.2559
     16 O          69.4166   93.2229   15.0154 O.3     1  UNL1       -0.4426
     17 C          62.3023   87.8742   10.0016 C.3     1  UNL1        0.1934
     18 C          61.2359   88.6985    9.3431 C.2     1  UNL1        0.2494
     19 O          61.2882   90.1954    9.4239 O.2     1  UNL1       -0.2727
     20 N          60.1174   88.0259    8.6040 N.am    1  UNL1       -0.2655
     21 C          60.0652   86.5290    8.5233 C.3     1  UNL1        0.1796
     22 C          60.4976   85.8300    7.2685 C.2     1  UNL1        0.2460
     23 O          59.5704   85.7595    6.0916 O.2     1  UNL1       -0.2730
     24 N          61.8574   85.2014    7.1907 N.am    1  UNL1       -0.2746
     25 C          62.2899   84.5024    5.9360 C.3     1  UNL1        0.1150
     26 C          62.7846   85.2719    8.3677 C.3     1  UNL1        0.1150
     27 C          59.0511   88.8501    7.9455 C.3     1  UNL1        0.1207
     28 C          59.3897   89.7085    6.7630 C.ar    1  UNL1       -0.0023
     29 C          60.7955   89.7450    6.2407 C.ar    1  UNL1       -0.0026
     30 C          61.1341   90.6033    5.0581 C.ar    1  UNL1       -0.0003
     31 C          60.0672   91.4252    4.3978 C.ar    1  UNL1       -0.0000
     32 C          58.6615   91.3887    4.9200 C.ar    1  UNL1       -0.0003
     33 C          58.3228   90.5304    6.1026 C.ar    1  UNL1       -0.0026
     34 C          60.4059   92.2835    3.2152 C.ar    1  UNL1        0.0001
     35 C          59.3121   92.9495    2.4340 C.ar    1  UNL1        0.0009
     36 C          59.6508   93.8078    1.2514 C.ar    1  UNL1        0.0114
     37 C          61.0832   94.0002    0.8500 C.ar    1  UNL1        0.0577
     38 CL         61.4218   94.8586   -0.3326 Cl      1  UNL1       -0.0822
     39 C          62.1769   93.3343    1.6311 C.ar    1  UNL1        0.0114
     40 C          61.8383   92.4759    2.8138 C.ar    1  UNL1        0.0009
     41 S          62.7858   85.7749   12.0894 S.3     1  UNL1       -0.0724
     42 C          63.0092   84.7275   13.1396 C.3     1  UNL1        0.0913
     43 C          62.9054   83.2741   12.7834 C.ar    1  UNL1       -0.0108
     44 C          63.3021   82.8073   11.4143 C.ar    1  UNL1       -0.0011
     45 C          63.1984   81.3539   11.0580 C.ar    1  UNL1        0.0293
     46 C          62.6979   80.3673   12.0710 C.ar    1  UNL1        0.1401
     47 F          62.5942   78.9139   11.7148 F       1  UNL1       -0.2042
     48 C          62.3012   80.8341   13.4402 C.ar    1  UNL1        0.0293
     49 C          62.4049   82.2875   13.7964 C.ar    1  UNL1       -0.0011
@<TRIPOS>BOND
     1    15    16    1
     2    16     9    1
     3     9    10   ar
     4    10    11   ar
     5    11    12   ar
     6    12     8    1
     7     8     1    1
     8     1     2   ar
     9     2     3   ar
    10     3    17    1
    11    17    18    1
    12    18    19    2
    13    18    20   am
    14    20    21    1
    15    21    22    1
    16    22    23    2
    17    22    24   am
    18    24    25    1
    19    24    26    1
    20    20    27    1
    21    27    28    1
    22    28    29   ar
    23    29    30   ar
    24    30    31   ar
    25    31    34    1
    26    34    35   ar
    27    35    36   ar
    28    36    37   ar
    29    37    38    1
    30    37    39   ar
    31    39    40   ar
    32    31    32   ar
    33    32    33   ar
    34     3     4   ar
    35     4    41    1
    36    41    42    1
    37    42    43    1
    38    43    44   ar
    39    44    45   ar
    40    45    46   ar
    41    46    47    1
    42    46    48   ar
    43    48    49   ar
    44     4     5   ar
    45     5     6   ar
    46     6     7    2
    47    12    13   ar
    48    13    14   ar
    49    14     9   ar
    50     6     1   ar
    51    33    28   ar
    52    49    43   ar
    53    40    34   ar
@<TRIPOS>MOLECULE
*****
 49 53 0 0 0
SMALL
GASTEIGER

@<TRIPOS>ATOM
      1 C          60.9618   89.3559   10.5389 C.ar    1  UNL1        0.0574
      2 C          61.5247   89.2574   11.9258 C.ar    1  UNL1        0.0786
      3 N          62.6312   90.1756   12.3531 N.ar    1  UNL1       -0.2979
      4 C          63.1747   91.1924   11.3935 C.ar    1  UNL1        0.1750
      5 N          62.6118   91.2909   10.0067 N.ar    1  UNL1       -0.1847
      6 C          61.5053   90.3726    9.5793 C.ar    1  UNL1        0.2786
      7 O          60.9424   90.4712    8.1925 O.2     1  UNL1       -0.2654
      8 C          59.8553   88.4377   10.1116 C.3     1  UNL1        0.0622
      9 C          60.6241   85.2879    6.9911 C.ar    1  UNL1        0.3201
     10 N          59.2917   85.9742    7.0516 N.ar    1  UNL1       -0.1930
     11 C          59.0355   87.0241    8.0918 C.ar    1  UNL1        0.1012
     12 C          60.1116   87.3877    9.0714 C.ar    1  UNL1        0.0209
     13 C          61.4440   86.7014    9.0109 C.ar    1  UNL1        0.1012
     14 N          61.7002   85.6515    7.9707 N.ar    1  UNL1       -0.1930
     15 C          62.2272   84.1423    5.2977 C.3     1  UNL1        0.2559
     16 O          60.8803   84.2380    5.9509 O.3     1  UNL1       -0.4426
     17 C          63.1941   90.0771   13.7400 C.3     1  UNL1        0.1934
     18 C          63.5601   88.7377   14.3075 C.2     1  UNL1        0.2494
     19 O          63.7742   87.5686   13.3924 O.2     1  UNL1       -0.2727
     20 N          63.7118   88.5674   15.7900 N.am    1  UNL1       -0.2655
     21 C          63.4977   89.7365   16.7051 C.3     1  UNL1        0.1796
     22 C          63.9605   91.1035   16.2963 C.2     1  UNL1        0.2460
     23 O          63.1521   92.3112   16.6675 O.2     1  UNL1       -0.2730
     24 N          65.2319   91.2627   15.5162 N.am    1  UNL1       -0.2746
     25 C          65.6947   92.6297   15.1075 C.3     1  UNL1        0.1150
     26 C          66.0403   90.0550   15.1450 C.3     1  UNL1        0.1150
     27 C          64.0777   87.2279   16.3575 C.3     1  UNL1        0.1207
     28 C          63.8671   85.9857   15.5437 C.ar    1  UNL1       -0.0023
     29 C          65.0047   85.4004   14.7603 C.ar    1  UNL1       -0.0026
     30 C          64.7940   84.1581   13.9465 C.ar    1  UNL1       -0.0003
     31 C          63.4460   83.5011   13.9160 C.ar    1  UNL1       -0.0000
     32 C          62.3085   84.0863   14.6993 C.ar    1  UNL1       -0.0003
     33 C          62.5191   85.3286   15.5132 C.ar    1  UNL1       -0.0026
     34 C          63.2354   82.2588   13.1021 C.ar    1  UNL1        0.0001
     35 C          63.4341   82.2933   11.6157 C.ar    1  UNL1        0.0009
     36 C          63.2235   81.0510   10.8019 C.ar    1  UNL1        0.0114
     37 C          62.8141   79.7742   11.4744 C.ar    1  UNL1        0.0577
     38 CL         62.6035   78.5319   10.6604 Cl      1  UNL1       -0.0822
     39 C          62.6154   79.7397   12.9607 C.ar    1  UNL1        0.0114
     40 C          62.8260   80.9820   13.7746 C.ar    1  UNL1        0.0009
     41 S          64.2812   92.1106   11.8209 S.3     1  UNL1       -0.0724
     42 C          65.6235   92.0274   11.1566 C.3     1  UNL1        0.0913
     43 C          66.1994   93.2335   10.4757 C.ar    1  UNL1       -0.0108
     44 C          65.5598   94.5773   10.6629 C.ar    1  UNL1       -0.0011
     45 C          66.1357   95.7835    9.9820 C.ar    1  UNL1        0.0293
     46 C          67.3512   95.6458    9.1139 C.ar    1  UNL1        0.1401
     47 F          67.9271   96.8519    8.4330 F       1  UNL1       -0.2042
     48 C          67.9908   94.3019    8.9268 C.ar    1  UNL1        0.0293
     49 C          67.4149   93.0958    9.6077 C.ar    1  UNL1       -0.0011
@<TRIPOS>BOND
     1    15    16    1
     2    16     9    1
     3     9    10   ar
     4    10    11   ar
     5    11    12   ar
     6    12     8    1
     7     8     1    1
     8     1     2   ar
     9     2     3   ar
    10     3    17    1
    11    17    18    1
    12    18    19    2
    13    18    20   am
    14    20    21    1
    15    21    22    1
    16    22    23    2
    17    22    24   am
    18    24    25    1
    19    24    26    1
    20    20    27    1
    21    27    28    1
    22    28    29   ar
    23    29    30   ar
    24    30    31   ar
    25    31    34    1
    26    34    35   ar
    27    35    36   ar
    28    36    37   ar
    29    37    38    1
    30    37    39   ar
    31    39    40   ar
    32    31    32   ar
    33    32    33   ar
    34     3     4   ar
    35     4    41    1
    36    41    42    1
    37    42    43    1
    38    43    44   ar
    39    44    45   ar
    40    45    46   ar
    41    46    47    1
    42    46    48   ar
    43    48    49   ar
    44     4     5   ar
    45     5     6   ar
    46     6     7    2
    47    12    13   ar
    48    13    14   ar
    49    14     9   ar
    50     6     1   ar
    51    33    28   ar
    52    49    43   ar
    53    40    34   ar
@<TRIPOS>MOLECULE
*****
 49 53 0 0 0
SMALL
GASTEIGER

@<TRIPOS>ATOM
      1 C          63.7034   88.6075   15.3177 C.ar    1  UNL1        0.0574
      2 C          63.8145   88.0715   13.9211 C.ar    1  UNL1        0.0786
      3 N          63.5211   86.6263   13.6468 N.ar    1  UNL1       -0.2979
      4 C          63.1166   85.7170   14.7691 C.ar    1  UNL1        0.1750
      5 N          63.0054   86.2529   16.1657 N.ar    1  UNL1       -0.1847
      6 C          63.2988   87.6982   16.4400 C.ar    1  UNL1        0.2786
      7 O          63.1876   88.2341   17.8365 O.2     1  UNL1       -0.2654
      8 C          63.9967   90.0527   15.5919 C.3     1  UNL1        0.0622
      9 C          66.3504   92.4745   12.6179 C.ar    1  UNL1        0.3201
     10 N          64.9119   92.1468   12.3474 N.ar    1  UNL1       -0.1930
     11 C          64.1274   91.3395   13.3387 C.ar    1  UNL1        0.1012
     12 C          64.7813   90.8600   14.6006 C.ar    1  UNL1        0.0209
     13 C          66.2198   91.1877   14.8711 C.ar    1  UNL1        0.1012
     14 N          67.0044   91.9950   13.8798 N.ar    1  UNL1       -0.1930
     15 C          66.4369   93.9332   10.4698 C.3     1  UNL1        0.2559
     16 O          67.1350   93.2818   11.6266 O.3     1  UNL1       -0.4426
     17 C          63.6323   86.0903   12.2502 C.3     1  UNL1        0.1934
     18 C          62.4124   86.0009   11.3819 C.2     1  UNL1        0.2494
     19 O          62.1708   84.7751   10.5518 O.2     1  UNL1       -0.2727
     20 N          61.4342   87.1374   11.3436 N.am    1  UNL1       -0.2655
     21 C          61.6759   88.3632   12.1736 C.3     1  UNL1        0.1796
     22 C          61.0197   89.6605   11.8042 C.2     1  UNL1        0.2460
     23 O          61.8165   90.7396   11.1330 O.2     1  UNL1       -0.2730
     24 N          59.5666   89.8787   12.1060 N.am    1  UNL1       -0.2746
     25 C          58.9104   91.1759   11.7365 C.3     1  UNL1        0.1150
     26 C          58.7698   88.7996   12.7772 C.3     1  UNL1        0.1150
     27 C          60.2144   87.0481   10.4753 C.3     1  UNL1        0.1207
     28 C          60.0866   87.9296    9.2685 C.ar    1  UNL1       -0.0023
     29 C          59.0547   87.6252    8.2231 C.ar    1  UNL1       -0.0026
     30 C          58.9270   88.5068    7.0163 C.ar    1  UNL1       -0.0003
     31 C          59.8311   89.6928    6.8547 C.ar    1  UNL1       -0.0000
     32 C          60.8629   89.9972    7.9000 C.ar    1  UNL1       -0.0003
     33 C          60.9907   89.1156    9.1069 C.ar    1  UNL1       -0.0026
     34 C          59.7033   90.5743    5.6479 C.ar    1  UNL1        0.0001
     35 C          58.3544   91.0761    5.2250 C.ar    1  UNL1        0.0009
     36 C          58.2267   91.9577    4.0182 C.ar    1  UNL1        0.0114
     37 C          59.4478   92.3375    3.2342 C.ar    1  UNL1        0.0577
     38 CL         59.3200   93.2191    2.0273 Cl      1  UNL1       -0.0822
     39 C          60.7966   91.8358    3.6570 C.ar    1  UNL1        0.0114
     40 C          60.9244   90.9542    4.8639 C.ar    1  UNL1        0.0009
     41 S          62.8232   84.2717   14.4948 S.3     1  UNL1       -0.0724
     42 C          63.9153   83.3629   14.0138 C.3     1  UNL1        0.0913
     43 C          63.6571   82.4145   12.8808 C.ar    1  UNL1       -0.0108
     44 C          62.8561   81.1679   13.1140 C.ar    1  UNL1       -0.0011
     45 C          62.5979   80.2193   11.9810 C.ar    1  UNL1        0.0293
     46 C          63.1406   80.5175   10.6148 C.ar    1  UNL1        0.1401
     47 F          62.8824   79.5690    9.4818 F       1  UNL1       -0.2042
     48 C          63.9416   81.7642   10.3816 C.ar    1  UNL1        0.0293
     49 C          64.1998   82.7126   11.5146 C.ar    1  UNL1       -0.0011
@<TRIPOS>BOND
     1    15    16    1
     2    16     9    1
     3     9    10   ar
     4    10    11   ar
     5    11    12   ar
     6    12     8    1
     7     8     1    1
     8     1     2   ar
     9     2     3   ar
    10     3    17    1
    11    17    18    1
    12    18    19    2
    13    18    20   am
    14    20    21    1
    15    21    22    1
    16    22    23    2
    17    22    24   am
    18    24    25    1
    19    24    26    1
    20    20    27    1
    21    27    28    1
    22    28    29   ar
    23    29    30   ar
    24    30    31   ar
    25    31    34    1
    26    34    35   ar
    27    35    36   ar
    28    36    37   ar
    29    37    38    1
    30    37    39   ar
    31    39    40   ar
    32    31    32   ar
    33    32    33   ar
    34     3     4   ar
    35     4    41    1
    36    41    42    1
    37    42    43    1
    38    43    44   ar
    39    44    45   ar
    40    45    46   ar
    41    46    47    1
    42    46    48   ar
    43    48    49   ar
    44     4     5   ar
    45     5     6   ar
    46     6     7    2
    47    12    13   ar
    48    13    14   ar
    49    14     9   ar
    50     6     1   ar
    51    33    28   ar
    52    49    43   ar
    53    40    34   ar
@<TRIPOS>MOLECULE
*****
 49 53 0 0 0
SMALL
GASTEIGER

@<TRIPOS>ATOM
      1 C          64.0974   85.4439   15.1825 C.ar    1  UNL1        0.0574
      2 C          64.0095   86.0971   13.8350 C.ar    1  UNL1        0.0786
      3 N          63.6543   87.5505   13.7278 N.ar    1  UNL1       -0.2979
      4 C          63.3869   88.3507   14.9680 C.ar    1  UNL1        0.1750
      5 N          63.4748   87.6976   16.3154 N.ar    1  UNL1       -0.1847
      6 C          63.8301   86.2441   16.4227 C.ar    1  UNL1        0.2786
      7 O          63.9179   85.5910   17.7702 O.2     1  UNL1       -0.2654
      8 C          64.4527   83.9906   15.2897 C.3     1  UNL1        0.0622
      9 C          61.4180   80.8471   14.2130 C.ar    1  UNL1        0.3201
     10 N          60.9653   82.2155   14.6284 N.ar    1  UNL1       -0.1930
     11 C          61.9769   83.2633   14.9873 C.ar    1  UNL1        0.1012
     12 C          63.4411   82.9428   14.9308 C.ar    1  UNL1        0.0209
     13 C          63.8938   81.5744   14.5154 C.ar    1  UNL1        0.1012
     14 N          62.8822   80.5266   14.1565 N.ar    1  UNL1       -0.1930
     15 C          58.9995   79.9098   14.3623 C.3     1  UNL1        0.2559
     16 O          60.4064   79.7993   13.8541 O.3     1  UNL1       -0.4426
     17 C          63.5664   88.2037   12.3803 C.3     1  UNL1        0.1934
     18 C          62.2284   88.4213   11.7381 C.2     1  UNL1        0.2494
     19 O          61.6752   89.8096   11.6094 O.2     1  UNL1       -0.2727
     20 N          61.4436   87.2506   11.2248 N.am    1  UNL1       -0.2655
     21 C          61.9968   85.8624   11.3536 C.3     1  UNL1        0.1796
     22 C          62.7361   85.2402   10.2063 C.2     1  UNL1        0.2460
     23 O          62.8226   85.9581    8.8921 O.2     1  UNL1       -0.2730
     24 N          63.3890   83.9000   10.3732 N.am    1  UNL1       -0.2746
     25 C          64.1283   83.2778    9.2259 C.3     1  UNL1        0.1150
     26 C          63.3025   83.1821   11.6874 C.3     1  UNL1        0.1150
     27 C          60.1055   87.4683   10.5827 C.3     1  UNL1        0.1207
     28 C          59.9992   88.2851    9.3292 C.ar    1  UNL1       -0.0023
     29 C          59.3997   87.6854    8.0917 C.ar    1  UNL1       -0.0026
     30 C          59.2933   88.5023    6.8382 C.ar    1  UNL1       -0.0003
     31 C          59.7864   89.9188    6.8220 C.ar    1  UNL1       -0.0000
     32 C          60.3858   90.5185    8.0593 C.ar    1  UNL1       -0.0003
     33 C          60.4922   89.7017    9.3129 C.ar    1  UNL1       -0.0026
     34 C          59.6800   90.7357    5.5685 C.ar    1  UNL1        0.0001
     35 C          58.3401   91.2225    5.1019 C.ar    1  UNL1        0.0009
     36 C          58.2337   92.0393    3.8483 C.ar    1  UNL1        0.0114
     37 C          59.4673   92.3694    3.0613 C.ar    1  UNL1        0.0577
     38 CL         59.3608   93.1864    1.8078 Cl      1  UNL1       -0.0822
     39 C          60.8072   91.8827    3.5279 C.ar    1  UNL1        0.0114
     40 C          60.9136   91.0658    4.7815 C.ar    1  UNL1        0.0009
     41 S          63.0317   89.8041   14.8607 S.3     1  UNL1       -0.0724
     42 C          64.0608   90.8521   15.1649 C.3     1  UNL1        0.0913
     43 C          64.9391   91.3810   14.0700 C.ar    1  UNL1       -0.0108
     44 C          64.3472   91.7312   12.7370 C.ar    1  UNL1       -0.0011
     45 C          65.2255   92.2601   11.6420 C.ar    1  UNL1        0.0293
     46 C          66.6957   92.4387   11.8801 C.ar    1  UNL1        0.1401
     47 F          67.5740   92.9675   10.7852 F       1  UNL1       -0.2042
     48 C          67.2875   92.0884   13.2132 C.ar    1  UNL1        0.0293
     49 C          66.4092   91.5596   14.3081 C.ar    1  UNL1       -0.0011
@<TRIPOS>BOND
     1    15    16    1
     2    16     9    1
     3     9    10   ar
     4    10    11   ar
     5    11    12   ar
     6    12     8    1
     7     8     1    1
     8     1     2   ar
     9     2     3   ar
    10     3    17    1
    11    17    18    1
    12    18    19    2
    13    18    20   am
    14    20    21    1
    15    21    22    1
    16    22    23    2
    17    22    24   am
    18    24    25    1
    19    24    26    1
    20    20    27    1
    21    27    28    1
    22    28    29   ar
    23    29    30   ar
    24    30    31   ar
    25    31    34    1
    26    34    35   ar
    27    35    36   ar
    28    36    37   ar
    29    37    38    1
    30    37    39   ar
    31    39    40   ar
    32    31    32   ar
    33    32    33   ar
    34     3     4   ar
    35     4    41    1
    36    41    42    1
    37    42    43    1
    38    43    44   ar
    39    44    45   ar
    40    45    46   ar
    41    46    47    1
    42    46    48   ar
    43    48    49   ar
    44     4     5   ar
    45     5     6   ar
    46     6     7    2
    47    12    13   ar
    48    13    14   ar
    49    14     9   ar
    50     6     1   ar
    51    33    28   ar
    52    49    43   ar
    53    40    34   ar
@<TRIPOS>MOLECULE
*****
 49 53 0 0 0
SMALL
GASTEIGER

@<TRIPOS>ATOM
      1 C          63.1219   85.2349   15.1125 C.ar    1  UNL1        0.0574
      2 C          63.0451   85.6143   13.6633 C.ar    1  UNL1        0.0786
      3 N          63.3390   87.0231   13.2403 N.ar    1  UNL1       -0.2979
      4 C          63.7097   88.0524   14.2664 C.ar    1  UNL1        0.1750
      5 N          63.7865   87.6730   15.7156 N.ar    1  UNL1       -0.1847
      6 C          63.4926   86.2642   16.1387 C.ar    1  UNL1        0.2786
      7 O          63.5694   85.8848   17.5878 O.2     1  UNL1       -0.2654
      8 C          62.8279   83.8261   15.5355 C.3     1  UNL1        0.0622
      9 C          62.7889   80.5215   12.4813 C.ar    1  UNL1        0.3201
     10 N          61.6263   80.6955   13.4130 N.ar    1  UNL1       -0.1930
     11 C          61.6393   81.7970   14.4311 C.ar    1  UNL1        0.1012
     12 C          62.8149   82.7246   14.5174 C.ar    1  UNL1        0.0209
     13 C          63.9775   82.5506   13.5858 C.ar    1  UNL1        0.1012
     14 N          63.9645   81.4491   12.5677 N.ar    1  UNL1       -0.1930
     15 C          62.8400   79.7491   10.0013 C.3     1  UNL1        0.2559
     16 O          62.7759   79.4199   11.4633 O.3     1  UNL1       -0.4426
     17 C          63.2622   87.4026   11.7910 C.3     1  UNL1        0.1934
     18 C          62.0022   87.9995   11.2378 C.2     1  UNL1        0.2494
     19 O          61.7020   89.4529   11.4563 O.2     1  UNL1       -0.2727
     20 N          61.0425   87.1432   10.4662 N.am    1  UNL1       -0.2655
     21 C          61.3427   85.6899   10.2477 C.3     1  UNL1        0.1796
     22 C          62.2628   85.2726    9.1390 C.2     1  UNL1        0.2460
     23 O          63.6980   84.9530    9.4356 O.2     1  UNL1       -0.2730
     24 N          61.7476   85.1747    7.7336 N.am    1  UNL1       -0.2746
     25 C          62.6676   84.7574    6.6249 C.3     1  UNL1        0.1150
     26 C          60.3124   85.4943    7.4370 C.3     1  UNL1        0.1150
     27 C          59.7825   87.7402    9.9130 C.3     1  UNL1        0.1207
     28 C          59.8352   88.5943    8.6811 C.ar    1  UNL1       -0.0023
     29 C          60.7799   89.7577    8.6148 C.ar    1  UNL1       -0.0026
     30 C          60.8326   90.6118    7.3829 C.ar    1  UNL1       -0.0003
     31 C          59.9406   90.3027    6.2172 C.ar    1  UNL1       -0.0000
     32 C          58.9959   89.1395    6.2834 C.ar    1  UNL1       -0.0003
     33 C          58.9432   88.2852    7.5154 C.ar    1  UNL1       -0.0026
     34 C          59.9933   91.1569    4.9853 C.ar    1  UNL1        0.0001
     35 C          58.7376   91.7782    4.4492 C.ar    1  UNL1        0.0009
     36 C          58.7903   92.6323    3.2173 C.ar    1  UNL1        0.0114
     37 C          60.0986   92.8652    2.5215 C.ar    1  UNL1        0.0577
     38 CL         60.1513   93.7194    1.2895 Cl      1  UNL1       -0.0822
     39 C          61.3542   92.2440    3.0576 C.ar    1  UNL1        0.0114
     40 C          61.3016   91.3898    4.2896 C.ar    1  UNL1        0.0009
     41 S          64.0036   89.4613   13.8434 S.3     1  UNL1       -0.0724
     42 C          64.1589   90.5377   14.8765 C.3     1  UNL1        0.0913
     43 C          65.4411   91.3108   14.9672 C.ar    1  UNL1       -0.0108
     44 C          65.7023   92.1935   16.1515 C.ar    1  UNL1       -0.0011
     45 C          66.9845   92.9666   16.2423 C.ar    1  UNL1        0.0293
     46 C          68.0055   92.8570   15.1488 C.ar    1  UNL1        0.1401
     47 F          69.2876   93.6301   15.2396 F       1  UNL1       -0.2042
     48 C          67.7442   91.9743   13.9645 C.ar    1  UNL1        0.0293
     49 C          66.4620   91.2012   13.8738 C.ar    1  UNL1       -0.0011
@<TRIPOS>BOND
     1    15    16    1
     2    16     9    1
     3     9    10   ar
     4    10    11   ar
     5    11    12   ar
     6    12     8    1
     7     8     1    1
     8     1     2   ar
     9     2     3   ar
    10     3    17    1
    11    17    18    1
    12    18    19    2
    13    18    20   am
    14    20    21    1
    15    21    22    1
    16    22    23    2
    17    22    24   am
    18    24    25    1
    19    24    26    1
    20    20    27    1
    21    27    28    1
    22    28    29   ar
    23    29    30   ar
    24    30    31   ar
    25    31    34    1
    26    34    35   ar
    27    35    36   ar
    28    36    37   ar
    29    37    38    1
    30    37    39   ar
    31    39    40   ar
    32    31    32   ar
    33    32    33   ar
    34     3     4   ar
    35     4    41    1
    36    41    42    1
    37    42    43    1
    38    43    44   ar
    39    44    45   ar
    40    45    46   ar
    41    46    47    1
    42    46    48   ar
    43    48    49   ar
    44     4     5   ar
    45     5     6   ar
    46     6     7    2
    47    12    13   ar
    48    13    14   ar
    49    14     9   ar
    50     6     1   ar
    51    33    28   ar
    52    49    43   ar
    53    40    34   ar
@<TRIPOS>MOLECULE
*****
 49 53 0 0 0
SMALL
GASTEIGER

@<TRIPOS>ATOM
      1 C          63.3892   84.2035    9.8610 C.ar    1  UNL1        0.0574
      2 C          63.1415   85.2207   10.9353 C.ar    1  UNL1        0.0786
      3 N          63.7817   85.0599   12.2822 N.ar    1  UNL1       -0.2979
      4 C          64.6696   83.8820   12.5549 C.ar    1  UNL1        0.1750
      5 N          64.9172   82.8649   11.4807 N.ar    1  UNL1       -0.1847
      6 C          64.2770   83.0256   10.1336 C.ar    1  UNL1        0.2786
      7 O          64.5247   82.0085    9.0594 O.2     1  UNL1       -0.2654
      8 C          62.7490   84.3642    8.5140 C.3     1  UNL1        0.0622
      9 C          59.8678   87.7423    7.7809 C.ar    1  UNL1        0.3201
     10 N          59.6590   86.4188    7.1067 N.ar    1  UNL1       -0.1930
     11 C          60.6194   85.2928    7.3510 C.ar    1  UNL1        0.1012
     12 C          61.7886   85.4903    8.2697 C.ar    1  UNL1        0.0209
     13 C          61.9974   86.8138    8.9439 C.ar    1  UNL1        0.1012
     14 N          61.0370   87.9398    8.6995 N.ar    1  UNL1       -0.1930
     15 C          59.0541   89.7276    6.3159 C.3     1  UNL1        0.2559
     16 O          58.9075   88.8684    7.5365 O.3     1  UNL1       -0.4426
     17 C          63.5341   86.0771   13.3566 C.3     1  UNL1        0.1934
     18 C          62.9568   87.4157   13.0033 C.2     1  UNL1        0.2494
     19 O          62.0883   87.5610   11.7889 O.2     1  UNL1       -0.2727
     20 N          63.2480   88.6089   13.8643 N.am    1  UNL1       -0.2655
     21 C          64.1164   88.4635   15.0786 C.3     1  UNL1        0.1796
     22 C          63.5007   88.4708   16.4464 C.2     1  UNL1        0.2460
     23 O          63.1707   89.7732   17.1134 O.2     1  UNL1       -0.2730
     24 N          63.2148   87.1757   17.1471 N.am    1  UNL1       -0.2746
     25 C          62.5990   87.1829   18.5148 C.3     1  UNL1        0.1150
     26 C          63.5447   85.8733   16.4800 C.3     1  UNL1        0.1150
     27 C          62.6706   89.9475   13.5110 C.3     1  UNL1        0.1207
     28 C          63.4780   90.9244   12.7087 C.ar    1  UNL1       -0.0023
     29 C          63.2007   91.1036   11.2455 C.ar    1  UNL1       -0.0026
     30 C          64.0081   92.0805   10.4432 C.ar    1  UNL1       -0.0003
     31 C          65.0929   92.8783   11.1041 C.ar    1  UNL1       -0.0000
     32 C          65.3702   92.6992   12.5672 C.ar    1  UNL1       -0.0003
     33 C          64.5628   91.7222   13.3696 C.ar    1  UNL1       -0.0026
     34 C          65.9003   93.8552   10.3018 C.ar    1  UNL1        0.0001
     35 C          65.4511   95.2816   10.1844 C.ar    1  UNL1        0.0009
     36 C          66.2586   96.2585    9.3821 C.ar    1  UNL1        0.0114
     37 C          67.5151   95.8090    8.6971 C.ar    1  UNL1        0.0577
     38 CL         68.3225   96.7860    7.8948 Cl      1  UNL1       -0.0822
     39 C          67.9642   94.3827    8.8145 C.ar    1  UNL1        0.0114
     40 C          67.1568   93.4057    9.6168 C.ar    1  UNL1        0.0009
     41 S          65.3098   83.7213   13.9019 S.3     1  UNL1       -0.0724
     42 C          64.6035   82.9560   14.9815 C.3     1  UNL1        0.0913
     43 C          63.4339   82.0817   14.6386 C.ar    1  UNL1       -0.0108
     44 C          63.6577   80.6558   14.2303 C.ar    1  UNL1       -0.0011
     45 C          62.4880   79.7815   13.8874 C.ar    1  UNL1        0.0293
     46 C          61.0947   80.3331   13.9528 C.ar    1  UNL1        0.1401
     47 F          59.9251   79.4588   13.6098 F       1  UNL1       -0.2042
     48 C          60.8709   81.7591   14.3610 C.ar    1  UNL1        0.0293
     49 C          62.0405   82.6334   14.7039 C.ar    1  UNL1       -0.0011
@<TRIPOS>BOND
     1    15    16    1
     2    16     9    1
     3     9    10   ar
     4    10    11   ar
     5    11    12   ar
     6    12     8    1
     7     8     1    1
     8     1     2   ar
     9     2     3   ar
    10     3    17    1
    11    17    18    1
    12    18    19    2
    13    18    20   am
    14    20    21    1
    15    21    22    1
    16    22    23    2
    17    22    24   am
    18    24    25    1
    19    24    26    1
    20    20    27    1
    21    27    28    1
    22    28    29   ar
    23    29    30   ar
    24    30    31   ar
    25    31    34    1
    26    34    35   ar
    27    35    36   ar
    28    36    37   ar
    29    37    38    1
    30    37    39   ar
    31    39    40   ar
    32    31    32   ar
    33    32    33   ar
    34     3     4   ar
    35     4    41    1
    36    41    42    1
    37    42    43    1
    38    43    44   ar
    39    44    45   ar
    40    45    46   ar
    41    46    47    1
    42    46    48   ar
    43    48    49   ar
    44     4     5   ar
    45     5     6   ar
    46     6     7    2
    47    12    13   ar
    48    13    14   ar
    49    14     9   ar
    50     6     1   ar
    51    33    28   ar
    52    49    43   ar
    53    40    34   ar
