@<TRIPOS>MOLECULE
*****
 28 32 0 0 0
SMALL
GASTEIGER

@<TRIPOS>ATOM
      1 C          62.9463   83.8229   14.0377 C.ar    1  UNL1        0.0844
      2 C          63.8444   84.2029   15.1774 C.ar    1  UNL1        0.0205
      3 C          64.3752   85.6021   15.2797 C.ar    1  UNL1        0.0159
      4 C          64.0078   86.6213   14.2422 C.ar    1  UNL1        0.0454
      5 C          63.1097   86.2413   13.1025 C.ar    1  UNL1       -0.0069
      6 C          62.5789   84.8421   13.0003 C.ar    1  UNL1        0.0162
      7 C          62.6234   87.0960   11.9699 C.3     1  UNL1        0.0325
      8 C          62.9152   88.5419   11.6971 C.3     1  UNL1        0.0355
      9 C          63.7653   89.4901   12.4897 C.ar    1  UNL1        0.0302
     10 C          63.9794   90.9247   12.1077 C.ar    1  UNL1        0.0940
     11 N          64.8799   91.5480   13.1328 N.ar    1  UNL1       -0.2441
     12 N          65.2224   90.4985   14.1482 N.ar    1  UNL1       -0.1541
     13 C          64.5336   89.2267   13.7508 C.ar    1  UNL1        0.1493
     14 N          64.6415   87.9499   14.5308 N.pl3   1  UNL1       -0.2970
     15 H          65.2024   87.9891   15.3389 H       1  UNL1        0.1536
     16 C          59.7266   79.6440   14.2651 C.3     1  UNL1        0.0756
     17 C          60.9356   80.5028   14.0399 C.ar    1  UNL1        0.1613
     18 N          62.2621   80.0380   13.5158 N.ar    1  UNL1       -0.2073
     19 C          63.1767   81.2251   13.4512 C.ar    1  UNL1        0.2013
     20 N          62.4155   82.4236   13.9353 N.ar    1  UNL1       -0.2083
     21 N          61.0305   81.9772   14.2992 N.ar    1  UNL1       -0.1487
     22 C          65.3545   92.9708   13.1408 C.3     1  UNL1        0.1539
     23 C          66.0819   93.5256   11.9520 C.ar    1  UNL1        0.0021
     24 C          66.0758   95.0028   11.6913 C.ar    1  UNL1       -0.0023
     25 C          66.8031   95.5575   10.5025 C.ar    1  UNL1       -0.0003
     26 C          67.5365   94.6352    9.5744 C.ar    1  UNL1       -0.0000
     27 C          67.5426   93.1581    9.8351 C.ar    1  UNL1       -0.0003
     28 C          66.8153   92.6032   11.0240 C.ar    1  UNL1       -0.0023
@<TRIPOS>BOND
     1    16    17    1
     2    17    18   ar
     3    18    19   ar
     4    19    20   ar
     5    20     1    1
     6     1     2   ar
     7     2     3   ar
     8     3     4   ar
     9     4     5   ar
    10     5     6   ar
    11     5     7    1
    12     7     8    1
    13     8     9    1
    14     9    10   ar
    15    10    11   ar
    16    11    22    1
    17    22    23    1
    18    23    24   ar
    19    24    25   ar
    20    25    26   ar
    21    26    27   ar
    22    27    28   ar
    23    11    12   ar
    24    12    13   ar
    25    13    14    1
    26    20    21   ar
    27    21    17   ar
    28     6     1   ar
    29    13     9   ar
    30    14     4    1
    31    28    23   ar
    32    14    15    1
@<TRIPOS>MOLECULE
*****
 28 32 0 0 0
SMALL
GASTEIGER

@<TRIPOS>ATOM
      1 C          65.5881   93.1945   12.2675 C.ar    1  UNL1        0.0844
      2 C          66.2150   92.9425   13.6067 C.ar    1  UNL1        0.0205
      3 C          65.9834   91.6378   14.3096 C.ar    1  UNL1        0.0159
      4 C          65.1249   90.5851   13.6733 C.ar    1  UNL1        0.0454
      5 C          64.4980   90.8371   12.3342 C.ar    1  UNL1       -0.0069
      6 C          64.7296   92.1418   11.6313 C.ar    1  UNL1        0.0162
      7 C          63.6152   89.9302   11.5292 C.3     1  UNL1        0.0325
      8 C          63.1411   88.5471   11.8648 C.3     1  UNL1        0.0355
      9 C          63.4328   87.7296   13.0881 C.ar    1  UNL1        0.0302
     10 C          62.8933   86.3470   13.3060 C.ar    1  UNL1        0.0940
     11 N          63.3978   85.8560   14.6306 N.ar    1  UNL1       -0.2441
     12 N          64.2490   86.9351   15.2313 N.ar    1  UNL1       -0.1541
     13 C          64.2707   88.0930   14.2780 C.ar    1  UNL1        0.1493
     14 N          65.0238   89.3639   14.5384 N.pl3   1  UNL1       -0.2970
     15 H          65.5168   89.4014   15.3897 H       1  UNL1        0.1536
     16 C          66.0147   96.8548    8.4859 C.3     1  UNL1        0.0756
     17 C          66.0158   96.1817    9.8263 C.ar    1  UNL1        0.1613
     18 N          66.3363   96.8323   11.1394 N.ar    1  UNL1       -0.2073
     19 C          66.2151   95.7924   12.2137 C.ar    1  UNL1        0.2013
     20 N          65.8197   94.4992   11.5646 N.ar    1  UNL1       -0.2083
     21 N          65.6965   94.7398   10.0891 N.ar    1  UNL1       -0.1487
     22 C          63.1027   84.5204   15.2462 C.3     1  UNL1        0.1539
     23 C          63.0323   83.2957   14.3830 C.ar    1  UNL1        0.0021
     24 C          64.1149   83.0204   13.3820 C.ar    1  UNL1       -0.0023
     25 C          64.0445   81.7958   12.5187 C.ar    1  UNL1       -0.0003
     26 C          62.8914   80.8464   12.6564 C.ar    1  UNL1       -0.0000
     27 C          61.8087   81.1217   13.6574 C.ar    1  UNL1       -0.0003
     28 C          61.8791   82.3464   14.5207 C.ar    1  UNL1       -0.0023
@<TRIPOS>BOND
     1    16    17    1
     2    17    18   ar
     3    18    19   ar
     4    19    20   ar
     5    20     1    1
     6     1     2   ar
     7     2     3   ar
     8     3     4   ar
     9     4     5   ar
    10     5     6   ar
    11     5     7    1
    12     7     8    1
    13     8     9    1
    14     9    10   ar
    15    10    11   ar
    16    11    22    1
    17    22    23    1
    18    23    24   ar
    19    24    25   ar
    20    25    26   ar
    21    26    27   ar
    22    27    28   ar
    23    11    12   ar
    24    12    13   ar
    25    13    14    1
    26    20    21   ar
    27    21    17   ar
    28     6     1   ar
    29    13     9   ar
    30    14     4    1
    31    28    23   ar
    32    14    15    1
@<TRIPOS>MOLECULE
*****
 28 32 0 0 0
SMALL
GASTEIGER

@<TRIPOS>ATOM
      1 C          63.8805   94.1577    0.2147 C.ar    1  UNL1        0.0844
      2 C          64.7465   93.1711    0.9404 C.ar    1  UNL1        0.0205
      3 C          64.1673   92.3313    2.0400 C.ar    1  UNL1        0.0159
      4 C          62.7221   92.4782    2.4141 C.ar    1  UNL1        0.0454
      5 C          61.8561   93.4648    1.6884 C.ar    1  UNL1       -0.0069
      6 C          62.4353   94.3045    0.5887 C.ar    1  UNL1        0.0162
      7 C          60.4025   93.7671    1.9012 C.3     1  UNL1        0.0325
      8 C          59.4557   93.1575    2.8922 C.3     1  UNL1        0.0355
      9 C          59.7288   92.0950    3.9151 C.ar    1  UNL1        0.0302
     10 C          58.6869   91.5661    4.8557 C.ar    1  UNL1        0.0940
     11 N          59.3303   90.5239    5.7217 N.ar    1  UNL1       -0.2441
     12 N          60.7699   90.4087    5.3163 N.ar    1  UNL1       -0.1541
     13 C          61.0161   91.3797    4.1998 C.ar    1  UNL1        0.1493
     14 N          62.3483   91.5502    3.5317 N.pl3   1  UNL1       -0.2970
     15 H          63.0732   90.9773    3.8718 H       1  UNL1        0.1536
     16 C          64.9978   96.0914   -4.5700 C.3     1  UNL1        0.0756
     17 C          64.9732   95.8863   -3.0843 C.ar    1  UNL1        0.1613
     18 N          65.7286   96.6934   -2.0702 N.ar    1  UNL1       -0.2073
     19 C          65.4111   96.1440   -0.7110 C.ar    1  UNL1        0.2013
     20 N          64.4597   94.9975   -0.8850 N.ar    1  UNL1       -0.2083
     21 N          64.1890   94.8383   -2.3518 N.ar    1  UNL1       -0.1487
     22 C          58.6530   89.7354    6.8031 C.3     1  UNL1        0.1539
     23 C          59.4385   88.7500    7.6168 C.ar    1  UNL1        0.0021
     24 C          59.3112   87.2807    7.3428 C.ar    1  UNL1       -0.0023
     25 C          60.0966   86.2953    8.1564 C.ar    1  UNL1       -0.0003
     26 C          61.0092   86.7790    9.2441 C.ar    1  UNL1       -0.0000
     27 C          61.1365   88.2483    9.5181 C.ar    1  UNL1       -0.0003
     28 C          60.3511   89.2338    8.7044 C.ar    1  UNL1       -0.0023
@<TRIPOS>BOND
     1    16    17    1
     2    17    18   ar
     3    18    19   ar
     4    19    20   ar
     5    20     1    1
     6     1     2   ar
     7     2     3   ar
     8     3     4   ar
     9     4     5   ar
    10     5     6   ar
    11     5     7    1
    12     7     8    1
    13     8     9    1
    14     9    10   ar
    15    10    11   ar
    16    11    22    1
    17    22    23    1
    18    23    24   ar
    19    24    25   ar
    20    25    26   ar
    21    26    27   ar
    22    27    28   ar
    23    11    12   ar
    24    12    13   ar
    25    13    14    1
    26    20    21   ar
    27    21    17   ar
    28     6     1   ar
    29    13     9   ar
    30    14     4    1
    31    28    23   ar
    32    14    15    1
@<TRIPOS>MOLECULE
*****
 28 32 0 0 0
SMALL
GASTEIGER

@<TRIPOS>ATOM
      1 C          64.7754   92.0698   11.9168 C.ar    1  UNL1        0.0844
      2 C          63.9030   91.5000   10.8378 C.ar    1  UNL1        0.0205
      3 C          63.3483   90.1132   10.9762 C.ar    1  UNL1        0.0159
      4 C          63.6660   89.2963   12.1934 C.ar    1  UNL1        0.0454
      5 C          64.5384   89.8662   13.2724 C.ar    1  UNL1       -0.0069
      6 C          65.0931   91.2529   13.1341 C.ar    1  UNL1        0.0162
      7 C          64.9753   89.2269   14.5570 C.3     1  UNL1        0.0325
      8 C          64.6478   87.8596   15.0799 C.3     1  UNL1        0.0355
      9 C          63.8024   86.7941   14.4474 C.ar    1  UNL1        0.0302
     10 C          63.5497   85.4569   15.0781 C.ar    1  UNL1        0.0940
     11 N          62.6669   84.6689   14.1563 N.ar    1  UNL1       -0.2441
     12 N          62.3740   85.5193   12.9558 N.ar    1  UNL1       -0.1541
     13 C          63.0758   86.8327   13.1358 C.ar    1  UNL1        0.1493
     14 N          63.0151   87.9463   12.1326 N.pl3   1  UNL1       -0.2970
     15 H          62.4769   87.7675   11.3279 H       1  UNL1        0.1536
     16 C          66.0150   96.8094    9.9466 C.3     1  UNL1        0.0756
     17 C          65.8999   95.6352   10.8729 C.ar    1  UNL1        0.1613
     18 N          66.4677   95.5462   12.2585 N.ar    1  UNL1       -0.2073
     19 C          66.1155   94.1998   12.8182 C.ar    1  UNL1        0.2013
     20 N          65.3301   93.4567   11.7785 N.ar    1  UNL1       -0.2083
     21 N          65.1969   94.3437   10.5763 N.ar    1  UNL1       -0.1487
     22 C          62.1651   83.2754   14.3933 C.3     1  UNL1        0.1539
     23 C          62.4158   82.2044   13.3735 C.ar    1  UNL1        0.0021
     24 C          62.1858   80.7646   13.7259 C.ar    1  UNL1       -0.0023
     25 C          62.4365   79.6936   12.7061 C.ar    1  UNL1       -0.0003
     26 C          62.9172   80.0622   11.3339 C.ar    1  UNL1       -0.0000
     27 C          63.1471   81.5019   10.9815 C.ar    1  UNL1       -0.0003
     28 C          62.8964   82.5731   12.0013 C.ar    1  UNL1       -0.0023
@<TRIPOS>BOND
     1    16    17    1
     2    17    18   ar
     3    18    19   ar
     4    19    20   ar
     5    20     1    1
     6     1     2   ar
     7     2     3   ar
     8     3     4   ar
     9     4     5   ar
    10     5     6   ar
    11     5     7    1
    12     7     8    1
    13     8     9    1
    14     9    10   ar
    15    10    11   ar
    16    11    22    1
    17    22    23    1
    18    23    24   ar
    19    24    25   ar
    20    25    26   ar
    21    26    27   ar
    22    27    28   ar
    23    11    12   ar
    24    12    13   ar
    25    13    14    1
    26    20    21   ar
    27    21    17   ar
    28     6     1   ar
    29    13     9   ar
    30    14     4    1
    31    28    23   ar
    32    14    15    1
@<TRIPOS>MOLECULE
*****
 28 32 0 0 0
SMALL
GASTEIGER

@<TRIPOS>ATOM
      1 C          62.6809   85.5086   12.1749 C.ar    1  UNL1        0.0844
      2 C          63.0351   86.9351   12.4744 C.ar    1  UNL1        0.0205
      3 C          62.5479   88.0333   11.5764 C.ar    1  UNL1        0.0159
      4 C          61.7064   87.7050   10.3788 C.ar    1  UNL1        0.0454
      5 C          61.3521   86.2786   10.0793 C.ar    1  UNL1       -0.0069
      6 C          61.8394   85.1804   10.9773 C.ar    1  UNL1        0.0162
      7 C          60.5315   85.7368    8.9467 C.3     1  UNL1        0.0325
      8 C          59.8624   86.4877    7.8337 C.3     1  UNL1        0.0355
      9 C          59.8488   87.9657    7.5786 C.ar    1  UNL1        0.0302
     10 C          59.1361   88.5978    6.4199 C.ar    1  UNL1        0.0940
     11 N          59.3477   90.0807    6.4986 N.ar    1  UNL1       -0.2441
     12 N          60.1911   90.3652    7.7059 N.ar    1  UNL1       -0.1541
     13 C          60.5008   89.0581    8.3734 C.ar    1  UNL1        0.1493
     14 N          61.3275   88.9420    9.6197 N.pl3   1  UNL1       -0.2970
     15 H          61.6663   89.7898    9.9880 H       1  UNL1        0.1536
     16 C          63.6625   80.7222   14.1769 C.3     1  UNL1        0.0756
     17 C          63.6193   82.2103   13.9931 C.ar    1  UNL1        0.1613
     18 N          64.2165   83.2304   14.9167 N.ar    1  UNL1       -0.2073
     19 C          63.9376   84.5901   14.3480 C.ar    1  UNL1        0.2013
     20 N          63.1681   84.4104   13.0730 N.ar    1  UNL1       -0.2083
     21 N          62.9714   82.9396   12.8537 N.ar    1  UNL1       -0.1487
     22 C          58.8102   91.1001    5.5384 C.3     1  UNL1        0.1539
     23 C          59.7000   91.6700    4.4737 C.ar    1  UNL1        0.0021
     24 C          59.1375   92.6131    3.4518 C.ar    1  UNL1       -0.0023
     25 C          60.0272   93.1829    2.3871 C.ar    1  UNL1       -0.0003
     26 C          61.4794   92.8098    2.3442 C.ar    1  UNL1       -0.0000
     27 C          62.0418   91.8667    3.3661 C.ar    1  UNL1       -0.0003
     28 C          61.1521   91.2967    4.4309 C.ar    1  UNL1       -0.0023
@<TRIPOS>BOND
     1    16    17    1
     2    17    18   ar
     3    18    19   ar
     4    19    20   ar
     5    20     1    1
     6     1     2   ar
     7     2     3   ar
     8     3     4   ar
     9     4     5   ar
    10     5     6   ar
    11     5     7    1
    12     7     8    1
    13     8     9    1
    14     9    10   ar
    15    10    11   ar
    16    11    22    1
    17    22    23    1
    18    23    24   ar
    19    24    25   ar
    20    25    26   ar
    21    26    27   ar
    22    27    28   ar
    23    11    12   ar
    24    12    13   ar
    25    13    14    1
    26    20    21   ar
    27    21    17   ar
    28     6     1   ar
    29    13     9   ar
    30    14     4    1
    31    28    23   ar
    32    14    15    1
@<TRIPOS>MOLECULE
*****
 28 32 0 0 0
SMALL
GASTEIGER

@<TRIPOS>ATOM
      1 C          66.0183   92.1960   13.3062 C.ar    1  UNL1        0.0844
      2 C          65.9273   93.0970   12.1104 C.ar    1  UNL1        0.0205
      3 C          64.9416   92.7986   11.0199 C.ar    1  UNL1        0.0159
      4 C          64.0469   91.5992   11.1251 C.ar    1  UNL1        0.0454
      5 C          64.1379   90.6982   12.3209 C.ar    1  UNL1       -0.0069
      6 C          65.1237   90.9966   13.4114 C.ar    1  UNL1        0.0162
      7 C          63.3460   89.4604   12.6218 C.3     1  UNL1        0.0325
      8 C          62.2672   88.8178   11.8011 C.3     1  UNL1        0.0355
      9 C          61.7142   89.2544   10.4769 C.ar    1  UNL1        0.0302
     10 C          60.6261   88.5184    9.7526 C.ar    1  UNL1        0.0940
     11 N          60.3427   89.2505    8.4745 N.ar    1  UNL1       -0.2441
     12 N          61.2555   90.4389    8.4087 N.ar    1  UNL1       -0.1541
     13 C          62.1031   90.4413    9.6463 C.ar    1  UNL1        0.1493
     14 N          63.1413   91.4849    9.9348 N.pl3   1  UNL1       -0.2970
     15 H          63.2416   92.1877    9.2528 H       1  UNL1        0.1536
     16 C          69.4519   94.7287   16.4170 C.3     1  UNL1        0.0756
     17 C          68.5823   93.6585   15.8266 C.ar    1  UNL1        0.1613
     18 N          68.4596   92.2484   16.3234 N.ar    1  UNL1       -0.2073
     19 C          67.4842   91.5290   15.4396 C.ar    1  UNL1        0.2013
     20 N          67.0041   92.4944   14.3968 N.ar    1  UNL1       -0.2083
     21 N          67.6828   93.8105   14.6360 N.ar    1  UNL1       -0.1487
     22 C          59.3250   88.8623    7.4431 C.3     1  UNL1        0.1539
     23 C          58.9188   89.8435    6.3838 C.ar    1  UNL1        0.0021
     24 C          59.9662   90.5700    5.5931 C.ar    1  UNL1       -0.0023
     25 C          59.5601   91.5512    4.5338 C.ar    1  UNL1       -0.0003
     26 C          58.1066   91.8060    4.2650 C.ar    1  UNL1       -0.0000
     27 C          57.0591   91.0795    5.0556 C.ar    1  UNL1       -0.0003
     28 C          57.4653   90.0982    6.1151 C.ar    1  UNL1       -0.0023
@<TRIPOS>BOND
     1    16    17    1
     2    17    18   ar
     3    18    19   ar
     4    19    20   ar
     5    20     1    1
     6     1     2   ar
     7     2     3   ar
     8     3     4   ar
     9     4     5   ar
    10     5     6   ar
    11     5     7    1
    12     7     8    1
    13     8     9    1
    14     9    10   ar
    15    10    11   ar
    16    11    22    1
    17    22    23    1
    18    23    24   ar
    19    24    25   ar
    20    25    26   ar
    21    26    27   ar
    22    27    28   ar
    23    11    12   ar
    24    12    13   ar
    25    13    14    1
    26    20    21   ar
    27    21    17   ar
    28     6     1   ar
    29    13     9   ar
    30    14     4    1
    31    28    23   ar
    32    14    15    1
@<TRIPOS>MOLECULE
*****
 28 32 0 0 0
SMALL
GASTEIGER

@<TRIPOS>ATOM
      1 C          62.9996   83.0629   13.1502 C.ar    1  UNL1        0.0844
      2 C          63.8492   83.4661   14.3188 C.ar    1  UNL1        0.0205
      3 C          64.2259   84.9053   14.5110 C.ar    1  UNL1        0.0159
      4 C          63.7530   85.9412   13.5347 C.ar    1  UNL1        0.0454
      5 C          62.9034   85.5380   12.3661 C.ar    1  UNL1       -0.0069
      6 C          62.5267   84.0988   12.1739 C.ar    1  UNL1        0.0162
      7 C          62.3303   86.4037   11.2836 C.3     1  UNL1        0.0325
      8 C          62.4652   87.8866   11.1023 C.3     1  UNL1        0.0355
      9 C          63.2065   88.8699   11.9587 C.ar    1  UNL1        0.0302
     10 C          63.2655   90.3401   11.6670 C.ar    1  UNL1        0.0940
     11 N          64.0916   90.9920   12.7359 N.ar    1  UNL1       -0.2441
     12 N          64.5431   89.9248   13.6883 N.ar    1  UNL1       -0.1541
     13 C          63.9961   88.6133   13.2079 C.ar    1  UNL1        0.1493
     14 N          64.2393   87.3098   13.9093 N.pl3   1  UNL1       -0.2970
     15 H          64.7910   87.3591   14.7232 H       1  UNL1        0.1536
     16 C          62.3573   78.2844   10.9974 C.3     1  UNL1        0.0756
     17 C          62.3276   79.4273   11.9684 C.ar    1  UNL1        0.1613
     18 N          61.7587   79.3909   13.3559 N.ar    1  UNL1       -0.2073
     19 C          61.9412   80.7484   13.9674 C.ar    1  UNL1        0.2013
     20 N          62.6229   81.6237   12.9580 N.ar    1  UNL1       -0.2083
     21 N          62.8617   80.8073   11.7225 N.ar    1  UNL1       -0.1487
     22 C          64.4101   92.4544   12.8351 C.3     1  UNL1        0.1539
     23 C          65.4274   93.0644   11.9168 C.ar    1  UNL1        0.0021
     24 C          65.4928   94.5540   11.7536 C.ar    1  UNL1       -0.0023
     25 C          66.5100   95.1639   10.8353 C.ar    1  UNL1       -0.0003
     26 C          67.4619   94.2843   10.0803 C.ar    1  UNL1       -0.0000
     27 C          67.3965   92.7946   10.2435 C.ar    1  UNL1       -0.0003
     28 C          66.3792   92.1846   11.1618 C.ar    1  UNL1       -0.0023
@<TRIPOS>BOND
     1    16    17    1
     2    17    18   ar
     3    18    19   ar
     4    19    20   ar
     5    20     1    1
     6     1     2   ar
     7     2     3   ar
     8     3     4   ar
     9     4     5   ar
    10     5     6   ar
    11     5     7    1
    12     7     8    1
    13     8     9    1
    14     9    10   ar
    15    10    11   ar
    16    11    22    1
    17    22    23    1
    18    23    24   ar
    19    24    25   ar
    20    25    26   ar
    21    26    27   ar
    22    27    28   ar
    23    11    12   ar
    24    12    13   ar
    25    13    14    1
    26    20    21   ar
    27    21    17   ar
    28     6     1   ar
    29    13     9   ar
    30    14     4    1
    31    28    23   ar
    32    14    15    1
@<TRIPOS>MOLECULE
*****
 28 32 0 0 0
SMALL
GASTEIGER

@<TRIPOS>ATOM
      1 C          61.9390   86.6500    9.5759 C.ar    1  UNL1        0.0844
      2 C          62.1826   85.8629   10.8293 C.ar    1  UNL1        0.0205
      3 C          62.7691   86.5354   12.0350 C.ar    1  UNL1        0.0159
      4 C          63.1119   87.9949   11.9873 C.ar    1  UNL1        0.0454
      5 C          62.8683   88.7820   10.7338 C.ar    1  UNL1       -0.0069
      6 C          62.2819   88.1095    9.5281 C.ar    1  UNL1        0.0162
      7 C          63.1359   90.2350   10.4750 C.3     1  UNL1        0.0325
      8 C          63.7132   91.2599   11.4058 C.3     1  UNL1        0.0355
      9 C          64.1655   91.0849   12.8252 C.ar    1  UNL1        0.0302
     10 C          64.7299   92.1990   13.6560 C.ar    1  UNL1        0.0940
     11 N          65.0654   91.6444   15.0088 N.ar    1  UNL1       -0.2441
     12 N          64.7084   90.1875   15.0140 N.ar    1  UNL1       -0.1541
     13 C          64.1522   89.8418   13.6645 C.ar    1  UNL1        0.1493
     14 N          63.6833   88.4665   13.2915 N.pl3   1  UNL1       -0.2970
     15 H          63.7608   87.7831   13.9960 H       1  UNL1        0.1536
     16 C          61.4442   83.7972    5.1602 C.3     1  UNL1        0.0756
     17 C          61.1251   84.6662    6.3404 C.ar    1  UNL1        0.1613
     18 N          59.7749   85.2193    6.6887 N.ar    1  UNL1       -0.2073
     19 C          59.9155   86.0296    7.9431 C.ar    1  UNL1        0.2013
     20 N          61.3525   85.9775    8.3701 N.ar    1  UNL1       -0.2083
     21 N          62.1001   85.1349    7.3795 N.ar    1  UNL1       -0.1487
     22 C          65.6545   92.4119   16.1549 C.3     1  UNL1        0.1539
     23 C          67.1030   92.8010   16.1314 C.ar    1  UNL1        0.0021
     24 C          68.1539   91.8036   16.5200 C.ar    1  UNL1       -0.0023
     25 C          69.6023   92.1926   16.4965 C.ar    1  UNL1       -0.0003
     26 C          70.0000   93.5790   16.0844 C.ar    1  UNL1       -0.0000
     27 C          68.9492   94.5764   15.6959 C.ar    1  UNL1       -0.0003
     28 C          67.5006   94.1873   15.7194 C.ar    1  UNL1       -0.0023
@<TRIPOS>BOND
     1    16    17    1
     2    17    18   ar
     3    18    19   ar
     4    19    20   ar
     5    20     1    1
     6     1     2   ar
     7     2     3   ar
     8     3     4   ar
     9     4     5   ar
    10     5     6   ar
    11     5     7    1
    12     7     8    1
    13     8     9    1
    14     9    10   ar
    15    10    11   ar
    16    11    22    1
    17    22    23    1
    18    23    24   ar
    19    24    25   ar
    20    25    26   ar
    21    26    27   ar
    22    27    28   ar
    23    11    12   ar
    24    12    13   ar
    25    13    14    1
    26    20    21   ar
    27    21    17   ar
    28     6     1   ar
    29    13     9   ar
    30    14     4    1
    31    28    23   ar
    32    14    15    1
