@<TRIPOS>MOLECULE
*****
 32 35 0 0 0
SMALL
GASTEIGER

@<TRIPOS>ATOM
      1 C          63.5158   86.7220   15.1772 C.ar    1  UNL1        0.1646
      2 N          64.0608   87.5828   14.0764 N.ar    1  UNL1       -0.2224
      3 C          64.1384   88.9918   14.5849 C.ar    1  UNL1        0.1074
      4 C          63.6412   89.0018   16.0001 C.ar    1  UNL1        0.0588
      5 S          63.2565   87.5990   16.3662 S.2     1  UNL1       -0.0508
      6 C          64.6272   90.1820   13.8137 C.ar    1  UNL1        0.1026
      7 C          63.8703   90.6577   12.6093 C.ar    1  UNL1        0.0224
      8 C          64.3591   91.8478   11.8382 C.ar    1  UNL1        0.0239
      9 C          65.6049   92.5621   12.2715 C.ar    1  UNL1        0.1189
     10 C          66.3618   92.0864   13.4759 C.ar    1  UNL1        0.2416
     11 N          65.8730   90.8963   14.2470 N.ar    1  UNL1       -0.2089
     12 N          66.0937   93.7523   11.5003 N.ar    1  UNL1       -0.2826
     13 C          66.1537   95.1644   12.0026 C.ar    1  UNL1        0.1826
     14 N          66.7054   96.0241   10.9042 N.ar    1  UNL1       -0.2280
     15 C          66.9864   95.1433    9.7230 C.ar    1  UNL1        0.0786
     16 C          67.5471   95.5884    8.4048 C.3     1  UNL1        0.0538
     17 C          66.6084   93.7392   10.0914 C.ar    1  UNL1        0.0963
     18 O          67.6076   92.8008   13.9092 O.3     1  UNL1       -0.4551
     19 C          67.6433   93.5129   15.2288 C.3     1  UNL1        0.2543
     20 N          63.2728   85.2437   15.1023 N.pl3   1  UNL1       -0.2784
     21 H          63.2306   84.7093   15.9280 H       1  UNL1        0.1555
     22 N          62.5846   83.1878   13.5388 N.ar    1  UNL1       -0.2377
     23 N          62.5692   82.9387   12.0597 N.ar    1  UNL1       -0.1642
     24 C          63.0691   84.1767   11.3760 C.ar    1  UNL1        0.1749
     25 C          63.3935   85.1908   12.4325 C.ar    1  UNL1        0.0589
     26 C          63.0941   84.5796   13.7692 C.ar    1  UNL1        0.1319
     27 C          63.2184   84.3671    9.8957 C.3     1  UNL1        0.4366
     28 F          63.3677   84.5575    8.4153 F       1  UNL1       -0.1643
     29 F          62.1805   85.4496    9.9302 F       1  UNL1       -0.1643
     30 F          64.2563   83.2848    9.8611 F       1  UNL1       -0.1643
     31 C          61.3235   81.0272   14.2398 C.3     1  UNL1        0.0285
     32 C          62.1644   82.2156   14.6010 C.3     1  UNL1        0.1289
@<TRIPOS>BOND
     1    31    32    1
     2    32    22    1
     3    22    23   ar
     4    23    24   ar
     5    24    27    1
     6    27    28    1
     7    27    29    1
     8    27    30    1
     9    24    25   ar
    10    25    26   ar
    11    26    20    1
    12    20     1    1
    13     1     2   ar
    14     2     3   ar
    15     3     6    1
    16     6     7   ar
    17     7     8   ar
    18     8     9   ar
    19     9    12    1
    20    12    13   ar
    21    13    14   ar
    22    14    15   ar
    23    15    16    1
    24    15    17   ar
    25     9    10   ar
    26    10    18    1
    27    18    19    1
    28    10    11   ar
    29     3     4   ar
    30     4     5   ar
    31    26    22   ar
    32     5     1   ar
    33    11     6   ar
    34    17    12   ar
    35    20    21    1
@<TRIPOS>MOLECULE
*****
 32 35 0 0 0
SMALL
GASTEIGER

@<TRIPOS>ATOM
      1 C          63.5414   91.1252   11.6077 C.ar    1  UNL1        0.1646
      2 N          63.7829   89.8040   12.2756 N.ar    1  UNL1       -0.2224
      3 C          62.8935   88.7862   11.6252 C.ar    1  UNL1        0.1074
      4 C          62.1023   89.4784   10.5552 C.ar    1  UNL1        0.0588
      5 S          62.5026   90.9239   10.5443 S.2     1  UNL1       -0.0508
      6 C          62.8100   87.3316   11.9820 C.ar    1  UNL1        0.1026
      7 C          62.0472   86.3862   11.1023 C.ar    1  UNL1        0.0224
      8 C          61.9637   84.9317   11.4592 C.ar    1  UNL1        0.0239
      9 C          62.6431   84.4227   12.6958 C.ar    1  UNL1        0.1189
     10 C          63.4060   85.3681   13.5756 C.ar    1  UNL1        0.2416
     11 N          63.4894   86.8226   13.2187 N.ar    1  UNL1       -0.2089
     12 N          62.5596   82.9681   13.0527 N.ar    1  UNL1       -0.2826
     13 C          62.3143   82.4091   14.4229 C.ar    1  UNL1        0.1826
     14 N          62.3098   80.9127   14.3191 N.ar    1  UNL1       -0.2280
     15 C          62.5523   80.5469   12.8847 C.ar    1  UNL1        0.0786
     16 C          62.6273   79.1551   12.3303 C.3     1  UNL1        0.0538
     17 C          62.7067   81.8171   12.1021 C.ar    1  UNL1        0.0963
     18 O          64.0853   84.8591   14.8123 O.3     1  UNL1       -0.4551
     19 C          63.8409   85.5289   16.1319 C.3     1  UNL1        0.2543
     20 N          64.2194   92.4202   11.9439 N.pl3   1  UNL1       -0.2784
     21 H          63.7632   93.2748   11.7686 H       1  UNL1        0.1555
     22 N          66.8878   92.4599   11.7921 N.ar    1  UNL1       -0.2377
     23 N          68.0075   92.4339   12.7899 N.ar    1  UNL1       -0.1642
     24 C          67.4043   92.3710   14.1619 C.ar    1  UNL1        0.1749
     25 C          65.9119   92.3582   14.0119 C.ar    1  UNL1        0.0589
     26 C          65.5927   92.4132   12.5473 C.ar    1  UNL1        0.1319
     27 C          68.1607   92.3284   15.4564 C.3     1  UNL1        0.4366
     28 F          68.9173   92.2858   16.7510 F       1  UNL1       -0.1643
     29 F          66.8658   92.2696   16.2112 F       1  UNL1       -0.1643
     30 F          69.4556   92.3872   14.7017 F       1  UNL1       -0.1643
     31 C          68.4004   92.4473    9.6798 C.3     1  UNL1        0.0285
     32 C          67.0371   92.5219   10.3008 C.3     1  UNL1        0.1289
@<TRIPOS>BOND
     1    31    32    1
     2    32    22    1
     3    22    23   ar
     4    23    24   ar
     5    24    27    1
     6    27    28    1
     7    27    29    1
     8    27    30    1
     9    24    25   ar
    10    25    26   ar
    11    26    20    1
    12    20     1    1
    13     1     2   ar
    14     2     3   ar
    15     3     6    1
    16     6     7   ar
    17     7     8   ar
    18     8     9   ar
    19     9    12    1
    20    12    13   ar
    21    13    14   ar
    22    14    15   ar
    23    15    16    1
    24    15    17   ar
    25     9    10   ar
    26    10    18    1
    27    18    19    1
    28    10    11   ar
    29     3     4   ar
    30     4     5   ar
    31    26    22   ar
    32     5     1   ar
    33    11     6   ar
    34    17    12   ar
    35    20    21    1
@<TRIPOS>MOLECULE
*****
 32 35 0 0 0
SMALL
GASTEIGER

@<TRIPOS>ATOM
      1 C          63.7703   86.8722   15.8548 C.ar    1  UNL1        0.1646
      2 N          64.4759   87.6372   14.7746 N.ar    1  UNL1       -0.2224
      3 C          64.1271   89.0877   14.9303 C.ar    1  UNL1        0.1074
      4 C          63.2059   89.2192   16.1068 C.ar    1  UNL1        0.0588
      5 S          62.9854   87.8499   16.6782 S.2     1  UNL1       -0.0508
      6 C          64.6140   90.2098   14.0620 C.ar    1  UNL1        0.1026
      7 C          63.8590   90.5785   12.8195 C.ar    1  UNL1        0.0224
      8 C          64.3458   91.7006   11.9512 C.ar    1  UNL1        0.0239
      9 C          65.5877   92.4540   12.3256 C.ar    1  UNL1        0.1189
     10 C          66.3428   92.0853   13.5681 C.ar    1  UNL1        0.2416
     11 N          65.8559   90.9632   14.4363 N.ar    1  UNL1       -0.2089
     12 N          66.0746   93.5761   11.4573 N.ar    1  UNL1       -0.2826
     13 C          66.1632   95.0208   11.8508 C.ar    1  UNL1        0.1826
     14 N          66.7017   95.7881   10.6798 N.ar    1  UNL1       -0.2280
     15 C          66.9459   94.8176    9.5625 C.ar    1  UNL1        0.0786
     16 C          67.4834   95.1549    8.2033 C.3     1  UNL1        0.0538
     17 C          66.5584   93.4505   10.0430 C.ar    1  UNL1        0.0963
     18 O          67.5847   92.8387   13.9424 O.3     1  UNL1       -0.4551
     19 C          67.7048   93.4577   15.3034 C.3     1  UNL1        0.2543
     20 N          63.8378   85.3897   16.0733 N.pl3   1  UNL1       -0.2784
     21 H          64.2129   85.0321   16.9103 H       1  UNL1        0.1555
     22 N          63.1014   84.7923   13.5742 N.ar    1  UNL1       -0.2377
     23 N          62.5976   83.5601   12.8827 N.ar    1  UNL1       -0.1642
     24 C          62.5188   82.4585   13.8977 C.ar    1  UNL1        0.1749
     25 C          62.9738   83.0098   15.2164 C.ar    1  UNL1        0.0589
     26 C          63.3338   84.4521   15.0165 C.ar    1  UNL1        0.1319
     27 C          62.0647   81.0525   13.6393 C.3     1  UNL1        0.4366
     28 F          61.6106   79.6464   13.3808 F       1  UNL1       -0.1643
     29 F          60.8139   81.3119   14.4256 F       1  UNL1       -0.1643
     30 F          63.3154   80.7931   12.8530 F       1  UNL1       -0.1643
     31 C          62.5305   86.5356   11.7344 C.3     1  UNL1        0.0285
     32 C          63.3321   86.1298   12.9355 C.3     1  UNL1        0.1289
@<TRIPOS>BOND
     1    31    32    1
     2    32    22    1
     3    22    23   ar
     4    23    24   ar
     5    24    27    1
     6    27    28    1
     7    27    29    1
     8    27    30    1
     9    24    25   ar
    10    25    26   ar
    11    26    20    1
    12    20     1    1
    13     1     2   ar
    14     2     3   ar
    15     3     6    1
    16     6     7   ar
    17     7     8   ar
    18     8     9   ar
    19     9    12    1
    20    12    13   ar
    21    13    14   ar
    22    14    15   ar
    23    15    16    1
    24    15    17   ar
    25     9    10   ar
    26    10    18    1
    27    18    19    1
    28    10    11   ar
    29     3     4   ar
    30     4     5   ar
    31    26    22   ar
    32     5     1   ar
    33    11     6   ar
    34    17    12   ar
    35    20    21    1
@<TRIPOS>MOLECULE
*****
 32 35 0 0 0
SMALL
GASTEIGER

@<TRIPOS>ATOM
      1 C          63.1245   90.3806   12.3723 C.ar    1  UNL1        0.1646
      2 N          63.4703   88.9560   12.6903 N.ar    1  UNL1       -0.2224
      3 C          62.6245   88.0695   11.8250 C.ar    1  UNL1        0.1074
      4 C          61.7560   88.9462   10.9722 C.ar    1  UNL1        0.0588
      5 S          62.0650   90.3745   11.3104 S.2     1  UNL1       -0.0508
      6 C          62.6438   86.5696   11.8144 C.ar    1  UNL1        0.1026
      7 C          62.3047   85.8241   10.5577 C.ar    1  UNL1        0.0224
      8 C          62.3240   84.3243   10.5471 C.ar    1  UNL1        0.0239
      9 C          62.6825   83.5700   11.7931 C.ar    1  UNL1        0.1189
     10 C          63.0216   84.3155   13.0498 C.ar    1  UNL1        0.2416
     11 N          63.0023   85.8153   13.0604 N.ar    1  UNL1       -0.2089
     12 N          62.7018   82.0701   11.7825 N.ar    1  UNL1       -0.2826
     13 C          62.5156   81.1775   12.9735 C.ar    1  UNL1        0.1826
     14 N          62.6094   79.7553   12.5061 N.ar    1  UNL1       -0.2280
     15 C          62.8535   79.7689   11.0261 C.ar    1  UNL1        0.0786
     16 C          63.0127   78.5635   10.1477 C.3     1  UNL1        0.0538
     17 C          62.9106   81.1996   10.5790 C.ar    1  UNL1        0.0963
     18 O          63.3800   83.5612   14.2958 O.3     1  UNL1       -0.4551
     19 C          63.7727   84.3065   15.5368 C.3     1  UNL1        0.2543
     20 N          63.7316   91.5976   13.0051 N.pl3   1  UNL1       -0.2784
     21 H          63.2850   92.0303   13.7683 H       1  UNL1        0.1555
     22 N          66.1765   92.6375   13.2984 N.ar    1  UNL1       -0.2377
     23 N          67.2482   93.1089   12.3607 N.ar    1  UNL1       -0.1642
     24 C          66.7531   92.9180   10.9577 C.ar    1  UNL1        0.1749
     25 C          65.3757   92.3287   11.0283 C.ar    1  UNL1        0.0589
     26 C          65.0192   92.1553   12.4749 C.ar    1  UNL1        0.1319
     27 C          67.5039   93.2570    9.7041 C.3     1  UNL1        0.4366
     28 F          68.2547   93.5960    8.4505 F       1  UNL1       -0.1643
     29 F          67.0003   94.6678    9.7839 F       1  UNL1       -0.1643
     30 F          68.0075   91.8464    9.6243 F       1  UNL1       -0.1643
     31 C          67.5827   92.6110   15.4829 C.3     1  UNL1        0.0285
     32 C          66.2493   92.6467   14.7967 C.3     1  UNL1        0.1289
@<TRIPOS>BOND
     1    31    32    1
     2    32    22    1
     3    22    23   ar
     4    23    24   ar
     5    24    27    1
     6    27    28    1
     7    27    29    1
     8    27    30    1
     9    24    25   ar
    10    25    26   ar
    11    26    20    1
    12    20     1    1
    13     1     2   ar
    14     2     3   ar
    15     3     6    1
    16     6     7   ar
    17     7     8   ar
    18     8     9   ar
    19     9    12    1
    20    12    13   ar
    21    13    14   ar
    22    14    15   ar
    23    15    16    1
    24    15    17   ar
    25     9    10   ar
    26    10    18    1
    27    18    19    1
    28    10    11   ar
    29     3     4   ar
    30     4     5   ar
    31    26    22   ar
    32     5     1   ar
    33    11     6   ar
    34    17    12   ar
    35    20    21    1
@<TRIPOS>MOLECULE
*****
 32 35 0 0 0
SMALL
GASTEIGER

@<TRIPOS>ATOM
      1 C          64.5448   90.8401   14.5263 C.ar    1  UNL1        0.1646
      2 N          64.5635   89.5890   13.6990 N.ar    1  UNL1       -0.2224
      3 C          63.9237   88.4941   14.5001 C.ar    1  UNL1        0.1074
      4 C          63.5096   89.0685   15.8225 C.ar    1  UNL1        0.0588
      5 S          63.8935   90.5184   15.8387 S.2     1  UNL1       -0.0508
      6 C          63.7316   87.0740   14.0567 C.ar    1  UNL1        0.1026
      7 C          64.1743   85.9459   14.9406 C.ar    1  UNL1        0.0224
      8 C          63.9823   84.5259   14.4972 C.ar    1  UNL1        0.0239
      9 C          63.3475   84.2340   13.1699 C.ar    1  UNL1        0.1189
     10 C          62.9048   85.3621   12.2860 C.ar    1  UNL1        0.2416
     11 N          63.0968   86.7821   12.7294 N.ar    1  UNL1       -0.2089
     12 N          63.1554   82.8139   12.7265 N.ar    1  UNL1       -0.2826
     13 C          62.7908   81.6565   13.6083 C.ar    1  UNL1        0.1826
     14 N          62.7043   80.4292   12.7503 N.ar    1  UNL1       -0.2280
     15 C          63.0155   80.8281   11.3381 C.ar    1  UNL1        0.0786
     16 C          63.0430   79.9136   10.1494 C.3     1  UNL1        0.0538
     17 C          63.2943   82.3019   11.3234 C.ar    1  UNL1        0.0963
     18 O          62.2700   85.0702   10.9586 O.3     1  UNL1       -0.4551
     19 C          61.2965   86.0433   10.3626 C.3     1  UNL1        0.2543
     20 N          65.0830   92.1781   14.1136 N.pl3   1  UNL1       -0.2784
     21 H          64.7008   93.0013   14.4949 H       1  UNL1        0.1555
     22 N          67.6547   92.0096   13.4043 N.ar    1  UNL1       -0.2377
     23 N          68.4178   92.2042   12.1277 N.ar    1  UNL1       -0.1642
     24 C          67.4383   92.5766   11.0544 C.ar    1  UNL1        0.1749
     25 C          66.0699   92.6121   11.6677 C.ar    1  UNL1        0.0589
     26 C          66.2036   92.2617   13.1200 C.ar    1  UNL1        0.1319
     27 C          67.7692   92.8631    9.6197 C.3     1  UNL1        0.4366
     28 F          68.1001   93.1496    8.1849 F       1  UNL1       -0.1643
     29 F          68.1605   91.4283    9.4234 F       1  UNL1       -0.1643
     30 F          67.3779   94.2977    9.8159 F       1  UNL1       -0.1643
     31 C          68.2597   92.6239   15.8552 C.3     1  UNL1        0.0285
     32 C          68.2399   91.6297   14.7322 C.3     1  UNL1        0.1289
@<TRIPOS>BOND
     1    31    32    1
     2    32    22    1
     3    22    23   ar
     4    23    24   ar
     5    24    27    1
     6    27    28    1
     7    27    29    1
     8    27    30    1
     9    24    25   ar
    10    25    26   ar
    11    26    20    1
    12    20     1    1
    13     1     2   ar
    14     2     3   ar
    15     3     6    1
    16     6     7   ar
    17     7     8   ar
    18     8     9   ar
    19     9    12    1
    20    12    13   ar
    21    13    14   ar
    22    14    15   ar
    23    15    16    1
    24    15    17   ar
    25     9    10   ar
    26    10    18    1
    27    18    19    1
    28    10    11   ar
    29     3     4   ar
    30     4     5   ar
    31    26    22   ar
    32     5     1   ar
    33    11     6   ar
    34    17    12   ar
    35    20    21    1
@<TRIPOS>MOLECULE
*****
 32 35 0 0 0
SMALL
GASTEIGER

@<TRIPOS>ATOM
      1 C          60.5081   88.5090   10.6555 C.ar    1  UNL1        0.1646
      2 N          61.9207   88.6399   11.1427 N.ar    1  UNL1       -0.2224
      3 C          62.0974   90.0273   11.6848 C.ar    1  UNL1        0.1074
      4 C          60.7940   90.7539   11.5326 C.ar    1  UNL1        0.0588
      5 S          59.8117   89.8156   10.8964 S.2     1  UNL1       -0.0508
      6 C          63.3565   90.5894   12.2755 C.ar    1  UNL1        0.1026
      7 C          63.8110   90.1451   13.6341 C.ar    1  UNL1        0.0224
      8 C          65.0701   90.7073   14.2247 C.ar    1  UNL1        0.0239
      9 C          65.8745   91.7137   13.4566 C.ar    1  UNL1        0.1189
     10 C          65.4200   92.1579   12.0980 C.ar    1  UNL1        0.2416
     11 N          64.1610   91.5958   11.5074 N.ar    1  UNL1       -0.2089
     12 N          67.1336   92.2758   14.0473 N.ar    1  UNL1       -0.2826
     13 C          68.5333   91.8935   13.6666 C.ar    1  UNL1        0.1826
     14 N          69.4788   92.7003   14.5063 N.ar    1  UNL1       -0.2280
     15 C          68.6635   93.5812   15.4060 C.ar    1  UNL1        0.0786
     16 C          69.2029   94.5537   16.4126 C.3     1  UNL1        0.0538
     17 C          67.2141   93.3188   15.1223 C.ar    1  UNL1        0.0963
     18 O          66.2245   93.1644   11.3299 O.3     1  UNL1       -0.4551
     19 C          66.1413   94.6194   11.6846 C.3     1  UNL1        0.2543
     20 N          59.8988   87.2863   10.0360 N.pl3   1  UNL1       -0.2784
     21 H          58.9370   87.1064   10.1451 H       1  UNL1        0.1555
     22 N          61.8831   85.5119    9.7935 N.ar    1  UNL1       -0.2377
     23 N          62.4585   84.7121    8.6624 N.ar    1  UNL1       -0.1642
     24 C          61.6857   85.0436    7.4203 C.ar    1  UNL1        0.1749
     25 C          60.6329   86.0482    7.7836 C.ar    1  UNL1        0.0589
     26 C          60.7548   86.3377    9.2504 C.ar    1  UNL1        0.1319
     27 C          61.9241   84.4710    6.0546 C.3     1  UNL1        0.4366
     28 F          62.1625   83.8983    4.6888 F       1  UNL1       -0.1643
     29 F          60.4656   84.1402    5.9387 F       1  UNL1       -0.1643
     30 F          63.3826   84.8018    6.1704 F       1  UNL1       -0.1643
     31 C          62.7784   84.1964   11.8472 C.3     1  UNL1        0.0285
     32 C          62.3535   85.4898   11.2177 C.3     1  UNL1        0.1289
@<TRIPOS>BOND
     1    31    32    1
     2    32    22    1
     3    22    23   ar
     4    23    24   ar
     5    24    27    1
     6    27    28    1
     7    27    29    1
     8    27    30    1
     9    24    25   ar
    10    25    26   ar
    11    26    20    1
    12    20     1    1
    13     1     2   ar
    14     2     3   ar
    15     3     6    1
    16     6     7   ar
    17     7     8   ar
    18     8     9   ar
    19     9    12    1
    20    12    13   ar
    21    13    14   ar
    22    14    15   ar
    23    15    16    1
    24    15    17   ar
    25     9    10   ar
    26    10    18    1
    27    18    19    1
    28    10    11   ar
    29     3     4   ar
    30     4     5   ar
    31    26    22   ar
    32     5     1   ar
    33    11     6   ar
    34    17    12   ar
    35    20    21    1
@<TRIPOS>MOLECULE
*****
 32 35 0 0 0
SMALL
GASTEIGER

@<TRIPOS>ATOM
      1 C          63.1244   90.5258   12.1042 C.ar    1  UNL1        0.1646
      2 N          63.3672   89.1149   12.5517 N.ar    1  UNL1       -0.2224
      3 C          62.6953   88.1966   11.5743 C.ar    1  UNL1        0.1074
      4 C          62.0373   89.0400   10.5228 C.ar    1  UNL1        0.0588
      5 S          62.3025   90.4796   10.8503 S.2     1  UNL1       -0.0508
      6 C          62.6835   86.6979   11.6374 C.ar    1  UNL1        0.1026
      7 C          62.2521   85.9003   10.4425 C.ar    1  UNL1        0.0224
      8 C          62.2404   84.4017   10.5056 C.ar    1  UNL1        0.0239
      9 C          62.6599   83.7007   11.7635 C.ar    1  UNL1        0.1189
     10 C          63.0913   84.4982   12.9584 C.ar    1  UNL1        0.2416
     11 N          63.1031   85.9968   12.8953 N.ar    1  UNL1       -0.2089
     12 N          62.6481   82.2020   11.8266 N.ar    1  UNL1       -0.2826
     13 C          62.3770   81.3730   13.0470 C.ar    1  UNL1        0.1826
     14 N          62.4667   79.9279   12.6550 N.ar    1  UNL1       -0.2280
     15 C          62.7932   79.8638   11.1923 C.ar    1  UNL1        0.0786
     16 C          62.9756   78.6137   10.3836 C.3     1  UNL1        0.0538
     17 C          62.9054   81.2693   10.6804 C.ar    1  UNL1        0.0963
     18 O          63.5109   83.7972   14.2164 O.3     1  UNL1       -0.4551
     19 C          63.9061   84.5951   15.4235 C.3     1  UNL1        0.2543
     20 N          63.6170   91.7655   12.7903 N.pl3   1  UNL1       -0.2784
     21 H          63.0877   92.5946   12.7486 H       1  UNL1        0.1555
     22 N          65.0853   91.4526   15.0018 N.ar    1  UNL1       -0.2377
     23 N          66.5479   91.5354   15.3246 N.ar    1  UNL1       -0.1642
     24 C          67.2825   91.8761   14.0619 C.ar    1  UNL1        0.1749
     25 C          66.2740   92.0037   12.9590 C.ar    1  UNL1        0.0589
     26 C          64.9161   91.7420   13.5398 C.ar    1  UNL1        0.1319
     27 C          68.7653   92.0573   13.9262 C.3     1  UNL1        0.4366
     28 F          70.2481   92.2385   13.7905 F       1  UNL1       -0.1643
     29 F          68.7186   91.4224   12.5679 F       1  UNL1       -0.1643
     30 F          68.8120   92.6921   15.2844 F       1  UNL1       -0.1643
     31 C          63.4162   89.7493   16.0330 C.3     1  UNL1        0.0285
     32 C          63.9851   91.1359   15.9711 C.3     1  UNL1        0.1289
@<TRIPOS>BOND
     1    31    32    1
     2    32    22    1
     3    22    23   ar
     4    23    24   ar
     5    24    27    1
     6    27    28    1
     7    27    29    1
     8    27    30    1
     9    24    25   ar
    10    25    26   ar
    11    26    20    1
    12    20     1    1
    13     1     2   ar
    14     2     3   ar
    15     3     6    1
    16     6     7   ar
    17     7     8   ar
    18     8     9   ar
    19     9    12    1
    20    12    13   ar
    21    13    14   ar
    22    14    15   ar
    23    15    16    1
    24    15    17   ar
    25     9    10   ar
    26    10    18    1
    27    18    19    1
    28    10    11   ar
    29     3     4   ar
    30     4     5   ar
    31    26    22   ar
    32     5     1   ar
    33    11     6   ar
    34    17    12   ar
    35    20    21    1
@<TRIPOS>MOLECULE
*****
 32 35 0 0 0
SMALL
GASTEIGER

@<TRIPOS>ATOM
      1 C          61.5037   87.6739   10.2249 C.ar    1  UNL1        0.1646
      2 N          62.6770   87.9814   11.1074 N.ar    1  UNL1       -0.2224
      3 C          62.6243   89.4391   11.4573 C.ar    1  UNL1        0.1074
      4 C          61.4185   90.0324   10.7910 C.ar    1  UNL1        0.0588
      5 S          60.7259   88.9415   10.0294 S.2     1  UNL1       -0.0508
      6 C          63.6053   90.1743   12.3217 C.ar    1  UNL1        0.1026
      7 C          64.0040   89.6082   13.6523 C.ar    1  UNL1        0.0224
      8 C          64.9849   90.3435   14.5166 C.ar    1  UNL1        0.0239
      9 C          65.5672   91.6449   14.0503 C.ar    1  UNL1        0.1189
     10 C          65.1684   92.2110   12.7198 C.ar    1  UNL1        0.2416
     11 N          64.1875   91.4757   11.8554 N.ar    1  UNL1       -0.2089
     12 N          66.5481   92.3802   14.9148 N.ar    1  UNL1       -0.2826
     13 C          66.3103   92.8417   16.3221 C.ar    1  UNL1        0.1826
     14 N          67.5543   93.5297   16.8007 N.ar    1  UNL1       -0.2280
     15 C          68.5609   93.4935   15.6892 C.ar    1  UNL1        0.0786
     16 C          69.9462   94.0670   15.7352 C.3     1  UNL1        0.0538
     17 C          67.9391   92.7830   14.5236 C.ar    1  UNL1        0.0963
     18 O          65.7507   93.5124   12.2535 O.3     1  UNL1       -0.4551
     19 C          66.4989   93.5769   10.9551 C.3     1  UNL1        0.2543
     20 N          61.1672   86.3340    9.6405 N.pl3   1  UNL1       -0.2784
     21 H          60.3440   86.2197    9.1128 H       1  UNL1        0.1555
     22 N          62.9279   84.5003    8.8144 N.ar    1  UNL1       -0.2377
     23 N          63.6850   83.3847    9.4721 N.ar    1  UNL1       -0.1642
     24 C          63.3100   83.3632   10.9243 C.ar    1  UNL1        0.1749
     25 C          62.3212   84.4653   11.1641 C.ar    1  UNL1        0.0589
     26 C          62.0851   85.1681    9.8602 C.ar    1  UNL1        0.1319
     27 C          63.8321   82.4073   11.9556 C.3     1  UNL1        0.4366
     28 F          64.3543   81.4513   12.9869 F       1  UNL1       -0.1643
     29 F          63.0041   81.3090   11.3569 F       1  UNL1       -0.1643
     30 F          64.6601   83.5054   12.5542 F       1  UNL1       -0.1643
     31 C          61.8077   84.6860    6.4776 C.3     1  UNL1        0.0285
     32 C          63.0009   84.8811    7.3654 C.3     1  UNL1        0.1289
@<TRIPOS>BOND
     1    31    32    1
     2    32    22    1
     3    22    23   ar
     4    23    24   ar
     5    24    27    1
     6    27    28    1
     7    27    29    1
     8    27    30    1
     9    24    25   ar
    10    25    26   ar
    11    26    20    1
    12    20     1    1
    13     1     2   ar
    14     2     3   ar
    15     3     6    1
    16     6     7   ar
    17     7     8   ar
    18     8     9   ar
    19     9    12    1
    20    12    13   ar
    21    13    14   ar
    22    14    15   ar
    23    15    16    1
    24    15    17   ar
    25     9    10   ar
    26    10    18    1
    27    18    19    1
    28    10    11   ar
    29     3     4   ar
    30     4     5   ar
    31    26    22   ar
    32     5     1   ar
    33    11     6   ar
    34    17    12   ar
    35    20    21    1
@<TRIPOS>MOLECULE
*****
 32 35 0 0 0
SMALL
GASTEIGER

@<TRIPOS>ATOM
      1 C          63.4212   87.0148   16.3677 C.ar    1  UNL1        0.1646
      2 N          64.1395   87.6631   15.2216 N.ar    1  UNL1       -0.2224
      3 C          63.9166   89.1437   15.3128 C.ar    1  UNL1        0.1074
      4 C          63.0606   89.4103   16.5154 C.ar    1  UNL1        0.0588
      5 S          62.7544   88.0946   17.1674 S.2     1  UNL1       -0.0508
      6 C          64.4553   90.1763   14.3675 C.ar    1  UNL1        0.1026
      7 C          65.6620   90.9829   14.7460 C.ar    1  UNL1        0.0224
      8 C          66.2005   92.0155   13.8007 C.ar    1  UNL1        0.0239
      9 C          65.5324   92.2415   12.4769 C.ar    1  UNL1        0.1189
     10 C          64.3257   91.4349   12.0984 C.ar    1  UNL1        0.2416
     11 N          63.7871   90.4024   13.0437 N.ar    1  UNL1       -0.2089
     12 N          66.0710   93.2742   11.5316 N.ar    1  UNL1       -0.2826
     13 C          66.1548   94.7491   11.7915 C.ar    1  UNL1        0.1826
     14 N          66.7560   95.3997   10.5810 N.ar    1  UNL1       -0.2280
     15 C          67.0437   94.3268    9.5729 C.ar    1  UNL1        0.0786
     16 C          67.6485   94.5316    8.2156 C.3     1  UNL1        0.0538
     17 C          66.6203   93.0132   10.1604 C.ar    1  UNL1        0.0963
     18 O          63.6576   91.6610   10.7745 O.3     1  UNL1       -0.4551
     19 C          62.6829   90.6516   10.2443 C.3     1  UNL1        0.2543
     20 N          63.3774   85.5446   16.6625 N.pl3   1  UNL1       -0.2784
     21 H          63.2965   85.2312   17.5923 H       1  UNL1        0.1555
     22 N          64.5186   84.5004   14.4826 N.ar    1  UNL1       -0.2377
     23 N          64.2063   83.3533   13.5679 N.ar    1  UNL1       -0.1642
     24 C          62.9512   82.6961   14.0608 C.ar    1  UNL1        0.1749
     25 C          62.4880   83.4369   15.2799 C.ar    1  UNL1        0.0589
     26 C          63.4567   84.5521   15.5407 C.ar    1  UNL1        0.1319
     27 C          62.2777   81.5067   13.4429 C.3     1  UNL1        0.4366
     28 F          61.6042   80.3173   12.8249 F       1  UNL1       -0.1643
     29 F          61.2766   81.4932   14.5599 F       1  UNL1       -0.1643
     30 F          63.2787   81.5202   12.3259 F       1  UNL1       -0.1643
     31 C          67.0398   85.0076   14.8519 C.3     1  UNL1        0.0285
     32 C          65.6877   85.4323   14.3606 C.3     1  UNL1        0.1289
@<TRIPOS>BOND
     1    31    32    1
     2    32    22    1
     3    22    23   ar
     4    23    24   ar
     5    24    27    1
     6    27    28    1
     7    27    29    1
     8    27    30    1
     9    24    25   ar
    10    25    26   ar
    11    26    20    1
    12    20     1    1
    13     1     2   ar
    14     2     3   ar
    15     3     6    1
    16     6     7   ar
    17     7     8   ar
    18     8     9   ar
    19     9    12    1
    20    12    13   ar
    21    13    14   ar
    22    14    15   ar
    23    15    16    1
    24    15    17   ar
    25     9    10   ar
    26    10    18    1
    27    18    19    1
    28    10    11   ar
    29     3     4   ar
    30     4     5   ar
    31    26    22   ar
    32     5     1   ar
    33    11     6   ar
    34    17    12   ar
    35    20    21    1
