@<TRIPOS>MOLECULE
*****
 29 33 0 0 0
SMALL
GASTEIGER

@<TRIPOS>ATOM
      1 C          62.8925   90.4319   12.4274 C.ar    1  UNL1        0.1436
      2 N          63.8435   91.2069   11.5644 N.ar    1  UNL1       -0.2290
      3 C          64.9677   91.6904   12.4318 C.ar    1  UNL1        0.0984
      4 C          66.1917   92.5027   12.1284 C.ar    1  UNL1        0.0206
      5 C          67.1593   92.8389   13.2241 C.ar    1  UNL1        0.0016
      6 C          66.9032   92.3627   14.6232 C.ar    1  UNL1        0.0016
      7 C          65.6792   91.5503   14.9266 C.ar    1  UNL1        0.0188
      8 C          64.7115   91.2142   13.8309 C.ar    1  UNL1        0.0786
      9 N          63.4289   90.4364   13.8282 N.ar    1  UNL1       -0.3134
     10 C          61.6271   89.7688   11.9699 C.3     1  UNL1        0.1744
     11 O          63.3942   87.1611   12.8225 O.2     1  UNL1       -0.2463
     12 C          62.5008   87.2666   11.6223 C.ar    1  UNL1        0.3319
     13 N          61.6885   88.4652   11.2304 N.ar    1  UNL1       -0.2711
     14 C          60.9484   88.1315    9.9691 C.ar    1  UNL1        0.0993
     15 C          59.9972   88.9253    9.1235 C.ar    1  UNL1        0.1176
     16 N          59.4009   88.3142    7.8903 N.ar    1  UNL1       -0.2407
     17 C          59.7558   86.9093    7.5026 C.ar    1  UNL1        0.1005
     18 C          60.7069   86.1155    8.3482 C.ar    1  UNL1        0.0395
     19 C          61.3033   86.7265    9.5814 C.ar    1  UNL1        0.0827
     20 N          62.2627   86.1921   10.6031 N.ar    1  UNL1       -0.2817
     21 C          62.8762   84.8233   10.6053 C.3     1  UNL1        0.0900
     22 C          63.1921   83.5424   11.3193 C.3     1  UNL1        0.0246
     23 C          63.6230   83.7333    9.8953 C.3     1  UNL1        0.0246
     24 C          62.7942   89.7786   15.0174 C.3     1  UNL1        0.1073
     25 C          63.5635   88.7670   15.8144 C.3     1  UNL1        0.0271
     26 C          63.0623   88.3341   17.1603 C.3     1  UNL1        0.0337
     27 C          62.7834   86.8844   17.4260 C.3     1  UNL1        0.1372
     28 O          61.4204   86.3206   17.1529 O.3     1  UNL1       -0.3820
     29 H          60.7770   86.7230   17.7571 H       1  UNL1        0.2104
@<TRIPOS>BOND
     1    11    12    2
     2    12    13   ar
     3    13    10    1
     4    10     1    1
     5     1     2   ar
     6     2     3   ar
     7     3     4   ar
     8     4     5   ar
     9     5     6   ar
    10     6     7   ar
    11     7     8   ar
    12     8     9   ar
    13     9    24    1
    14    24    25    1
    15    25    26    1
    16    26    27    1
    17    27    28    1
    18    13    14   ar
    19    14    15   ar
    20    15    16   ar
    21    16    17   ar
    22    17    18   ar
    23    18    19   ar
    24    19    20   ar
    25    20    21    1
    26    21    22    1
    27    22    23    1
    28    20    12   ar
    29    23    21    1
    30     9     1   ar
    31    19    14   ar
    32     8     3   ar
    33    28    29    1
@<TRIPOS>MOLECULE
*****
 29 33 0 0 0
SMALL
GASTEIGER

@<TRIPOS>ATOM
      1 C          63.5650   91.2128   12.3526 C.ar    1  UNL1        0.1436
      2 N          63.5873   91.0765   13.8462 N.ar    1  UNL1       -0.2290
      3 C          64.8716   91.6682   14.3465 C.ar    1  UNL1        0.0984
      4 C          65.4384   91.8148   15.7276 C.ar    1  UNL1        0.0206
      5 C          66.7765   92.4633   15.9242 C.ar    1  UNL1        0.0016
      6 C          67.5480   92.9653   14.7398 C.ar    1  UNL1        0.0016
      7 C          66.9813   92.8187   13.3588 C.ar    1  UNL1        0.0188
      8 C          65.6431   92.1702   13.1621 C.ar    1  UNL1        0.0786
      9 N          64.8356   91.8887   11.9298 N.ar    1  UNL1       -0.3134
     10 C          62.4652   90.7537   11.4416 C.3     1  UNL1        0.1744
     11 O          63.7873   88.3138   13.1587 O.2     1  UNL1       -0.2463
     12 C          62.8656   88.1672   11.9844 C.ar    1  UNL1        0.3319
     13 N          62.2579   89.2887   11.1952 N.ar    1  UNL1       -0.2711
     14 C          61.4065   88.6880   10.1162 C.ar    1  UNL1        0.0993
     15 C          60.5675   89.3074    9.0380 C.ar    1  UNL1        0.1176
     16 N          59.8101   88.4341    8.0823 N.ar    1  UNL1       -0.2407
     17 C          59.8916   86.9413    8.2047 C.ar    1  UNL1        0.1005
     18 C          60.7306   86.3219    9.2828 C.ar    1  UNL1        0.0395
     19 C          61.4880   87.1952   10.2385 C.ar    1  UNL1        0.0827
     20 N          62.3898   86.8734   11.3932 N.ar    1  UNL1       -0.2817
     21 C          62.7521   85.4990   11.8725 C.3     1  UNL1        0.0900
     22 C          62.8703   84.0248   11.6213 C.3     1  UNL1        0.0246
     23 C          63.2615   84.5925   12.9535 C.3     1  UNL1        0.0246
     24 C          65.2294   92.2243   10.5219 C.3     1  UNL1        0.1073
     25 C          65.6258   93.6271   10.1680 C.3     1  UNL1        0.0271
     26 C          67.0301   93.9220    9.7311 C.3     1  UNL1        0.0337
     27 C          68.0365   92.8133    9.6425 C.3     1  UNL1        0.1372
     28 O          69.4971   93.1110    9.8104 O.3     1  UNL1       -0.3820
     29 H          69.8008   93.6651    9.0744 H       1  UNL1        0.2104
@<TRIPOS>BOND
     1    11    12    2
     2    12    13   ar
     3    13    10    1
     4    10     1    1
     5     1     2   ar
     6     2     3   ar
     7     3     4   ar
     8     4     5   ar
     9     5     6   ar
    10     6     7   ar
    11     7     8   ar
    12     8     9   ar
    13     9    24    1
    14    24    25    1
    15    25    26    1
    16    26    27    1
    17    27    28    1
    18    13    14   ar
    19    14    15   ar
    20    15    16   ar
    21    16    17   ar
    22    17    18   ar
    23    18    19   ar
    24    19    20   ar
    25    20    21    1
    26    21    22    1
    27    22    23    1
    28    20    12   ar
    29    23    21    1
    30     9     1   ar
    31    19    14   ar
    32     8     3   ar
    33    28    29    1
@<TRIPOS>MOLECULE
*****
 29 33 0 0 0
SMALL
GASTEIGER

@<TRIPOS>ATOM
      1 C          63.1930   88.7290   12.8601 C.ar    1  UNL1        0.1436
      2 N          63.9316   88.1763   14.0428 N.ar    1  UNL1       -0.2290
      3 C          64.0155   86.6873   13.8824 C.ar    1  UNL1        0.0984
      4 C          64.6286   85.6186   14.7380 C.ar    1  UNL1        0.0206
      5 C          64.5549   84.1824   14.3116 C.ar    1  UNL1        0.0016
      6 C          63.8681   83.8148   13.0298 C.ar    1  UNL1        0.0016
      7 C          63.2551   84.8835   12.1742 C.ar    1  UNL1        0.0188
      8 C          63.3288   86.3197   12.6005 C.ar    1  UNL1        0.0786
      9 N          62.8204   87.5816   11.9687 N.ar    1  UNL1       -0.3134
     10 C          62.8815   90.1754   12.6122 C.3     1  UNL1        0.1744
     11 O          63.8130   91.5675    9.8115 O.2     1  UNL1       -0.2463
     12 C          64.4247   91.8050   11.1603 C.ar    1  UNL1        0.3319
     13 N          63.9966   91.1651   12.4477 N.ar    1  UNL1       -0.2711
     14 C          64.8793   91.6887   13.5416 C.ar    1  UNL1        0.0993
     15 C          64.9222   91.4126   15.0154 C.ar    1  UNL1        0.1176
     16 N          65.9388   92.1001   15.8778 N.ar    1  UNL1       -0.2407
     17 C          66.9125   93.0636   15.2666 C.ar    1  UNL1        0.1005
     18 C          66.8695   93.3397   13.7929 C.ar    1  UNL1        0.0395
     19 C          65.8529   92.6522   12.9304 C.ar    1  UNL1        0.0827
     20 N          65.5720   92.7241   11.4587 N.ar    1  UNL1       -0.2817
     21 C          66.3090   93.5671   10.4606 C.3     1  UNL1        0.0900
     22 C          66.5407   94.8937    9.7999 C.3     1  UNL1        0.0246
     23 C          67.3536   93.7007    9.3925 C.3     1  UNL1        0.0246
     24 C          62.0710   87.6790   10.6730 C.3     1  UNL1        0.1073
     25 C          60.8857   86.7941   10.4238 C.3     1  UNL1        0.0271
     26 C          60.5735   86.3332    9.0309 C.3     1  UNL1        0.0337
     27 C          59.6400   87.1302    8.1688 C.3     1  UNL1        0.1372
     28 O          58.2671   86.6067    7.8664 O.3     1  UNL1       -0.3820
     29 H          58.3388   85.8030    7.3281 H       1  UNL1        0.2104
@<TRIPOS>BOND
     1    11    12    2
     2    12    13   ar
     3    13    10    1
     4    10     1    1
     5     1     2   ar
     6     2     3   ar
     7     3     4   ar
     8     4     5   ar
     9     5     6   ar
    10     6     7   ar
    11     7     8   ar
    12     8     9   ar
    13     9    24    1
    14    24    25    1
    15    25    26    1
    16    26    27    1
    17    27    28    1
    18    13    14   ar
    19    14    15   ar
    20    15    16   ar
    21    16    17   ar
    22    17    18   ar
    23    18    19   ar
    24    19    20   ar
    25    20    21    1
    26    21    22    1
    27    22    23    1
    28    20    12   ar
    29    23    21    1
    30     9     1   ar
    31    19    14   ar
    32     8     3   ar
    33    28    29    1
@<TRIPOS>MOLECULE
*****
 29 33 0 0 0
SMALL
GASTEIGER

@<TRIPOS>ATOM
      1 C          63.0844   89.2726   12.4828 C.ar    1  UNL1        0.1436
      2 N          63.5216   88.1435   13.3682 N.ar    1  UNL1       -0.2290
      3 C          63.2023   86.8556   12.6687 C.ar    1  UNL1        0.0984
      4 C          63.4073   85.4225   13.0614 C.ar    1  UNL1        0.0206
      5 C          62.9778   84.3226   12.1364 C.ar    1  UNL1        0.0016
      6 C          62.3432   84.6557   10.8187 C.ar    1  UNL1        0.0016
      7 C          62.1382   86.0888   10.4260 C.ar    1  UNL1        0.0188
      8 C          62.5677   87.1887   11.3510 C.ar    1  UNL1        0.0786
      9 N          62.4949   88.6825   11.2361 N.ar    1  UNL1       -0.3134
     10 C          63.2140   90.7351   12.7901 C.3     1  UNL1        0.1744
     11 O          63.9766   92.1244    9.9374 O.2     1  UNL1       -0.2463
     12 C          64.8406   92.0962   11.1632 C.ar    1  UNL1        0.3319
     13 N          64.4901   91.4576   12.4745 N.ar    1  UNL1       -0.2711
     14 C          65.6397   91.6684   13.4147 C.ar    1  UNL1        0.0993
     15 C          65.8574   91.2595   14.8413 C.ar    1  UNL1        0.1176
     16 N          67.1362   91.6195   15.5378 N.ar    1  UNL1       -0.2407
     17 C          68.1972   92.3883   14.8077 C.ar    1  UNL1        0.1005
     18 C          67.9795   92.7972   13.3810 C.ar    1  UNL1        0.0395
     19 C          66.7007   92.4372   12.6845 C.ar    1  UNL1        0.0827
     20 N          66.2068   92.7016   11.2931 N.ar    1  UNL1       -0.2817
     21 C          66.9489   93.4416   10.2199 C.3     1  UNL1        0.0900
     22 C          67.1937   94.7001    9.4412 C.3     1  UNL1        0.0246
     23 C          67.9895   93.4648    9.1397 C.3     1  UNL1        0.0246
     24 C          61.9315   89.4513   10.0779 C.3     1  UNL1        0.1073
     25 C          60.4520   89.6771    9.9761 C.3     1  UNL1        0.0271
     26 C          59.7372   90.4556   11.0405 C.3     1  UNL1        0.0337
     27 C          59.3043   89.7745   12.3048 C.3     1  UNL1        0.1372
     28 O          59.2288   88.2774   12.3623 O.3     1  UNL1       -0.3820
     29 H          58.5325   87.9656   11.7634 H       1  UNL1        0.2104
@<TRIPOS>BOND
     1    11    12    2
     2    12    13   ar
     3    13    10    1
     4    10     1    1
     5     1     2   ar
     6     2     3   ar
     7     3     4   ar
     8     4     5   ar
     9     5     6   ar
    10     6     7   ar
    11     7     8   ar
    12     8     9   ar
    13     9    24    1
    14    24    25    1
    15    25    26    1
    16    26    27    1
    17    27    28    1
    18    13    14   ar
    19    14    15   ar
    20    15    16   ar
    21    16    17   ar
    22    17    18   ar
    23    18    19   ar
    24    19    20   ar
    25    20    21    1
    26    21    22    1
    27    22    23    1
    28    20    12   ar
    29    23    21    1
    30     9     1   ar
    31    19    14   ar
    32     8     3   ar
    33    28    29    1
@<TRIPOS>MOLECULE
*****
 29 33 0 0 0
SMALL
GASTEIGER

@<TRIPOS>ATOM
      1 C          61.7702   89.3068   11.5040 C.ar    1  UNL1        0.1436
      2 N          60.8667   89.9425   10.4892 N.ar    1  UNL1       -0.2290
      3 C          60.5213   88.9054    9.4620 C.ar    1  UNL1        0.0984
      4 C          59.6676   88.9586    8.2298 C.ar    1  UNL1        0.0206
      5 C          59.5039   87.7351    7.3775 C.ar    1  UNL1        0.0016
      6 C          60.1937   86.4586    7.7574 C.ar    1  UNL1        0.0016
      7 C          61.0474   86.4054    8.9896 C.ar    1  UNL1        0.0188
      8 C          61.2112   87.6288    9.8419 C.ar    1  UNL1        0.0786
      9 N          61.9830   87.8769   11.1039 N.ar    1  UNL1       -0.3134
     10 C          62.3576   89.9825   12.7076 C.3     1  UNL1        0.1744
     11 O          63.5658   91.1125    9.8946 O.2     1  UNL1       -0.2463
     12 C          64.1079   91.3960   11.2641 C.ar    1  UNL1        0.3319
     13 N          63.5526   90.8766   12.5571 N.ar    1  UNL1       -0.2711
     14 C          64.4020   91.4082   13.6733 C.ar    1  UNL1        0.0993
     15 C          64.3314   91.2297   15.1609 C.ar    1  UNL1        0.1176
     16 N          65.3410   91.8991   16.0454 N.ar    1  UNL1       -0.2407
     17 C          66.4214   92.7471   15.4422 C.ar    1  UNL1        0.1005
     18 C          66.4920   92.9257   13.9546 C.ar    1  UNL1        0.0395
     19 C          65.4824   92.2562   13.0701 C.ar    1  UNL1        0.0827
     20 N          65.3006   92.2486   11.5812 N.ar    1  UNL1       -0.2817
     21 C          66.1605   92.9676   10.5844 C.3     1  UNL1        0.0900
     22 C          67.3898   93.0176    9.7262 C.3     1  UNL1        0.0246
     23 C          66.4208   94.1626    9.7160 C.3     1  UNL1        0.0246
     24 C          62.8207   86.8716   11.8372 C.3     1  UNL1        0.1073
     25 C          62.3319   85.4626   11.9981 C.3     1  UNL1        0.0271
     26 C          63.0481   84.3373   11.3119 C.3     1  UNL1        0.0337
     27 C          64.0707   83.5332   12.0586 C.3     1  UNL1        0.1372
     28 O          64.9930   82.6148   11.3130 O.3     1  UNL1       -0.3820
     29 H          64.4797   81.8947   10.9144 H       1  UNL1        0.2104
@<TRIPOS>BOND
     1    11    12    2
     2    12    13   ar
     3    13    10    1
     4    10     1    1
     5     1     2   ar
     6     2     3   ar
     7     3     4   ar
     8     4     5   ar
     9     5     6   ar
    10     6     7   ar
    11     7     8   ar
    12     8     9   ar
    13     9    24    1
    14    24    25    1
    15    25    26    1
    16    26    27    1
    17    27    28    1
    18    13    14   ar
    19    14    15   ar
    20    15    16   ar
    21    16    17   ar
    22    17    18   ar
    23    18    19   ar
    24    19    20   ar
    25    20    21    1
    26    21    22    1
    27    22    23    1
    28    20    12   ar
    29    23    21    1
    30     9     1   ar
    31    19    14   ar
    32     8     3   ar
    33    28    29    1
@<TRIPOS>MOLECULE
*****
 29 33 0 0 0
SMALL
GASTEIGER

@<TRIPOS>ATOM
      1 C          63.1223   88.6692   12.6209 C.ar    1  UNL1        0.1436
      2 N          63.7758   87.8967   13.7282 N.ar    1  UNL1       -0.2290
      3 C          63.6927   86.4383   13.3876 C.ar    1  UNL1        0.0984
      4 C          64.1678   85.2109   14.1072 C.ar    1  UNL1        0.0206
      5 C          63.9381   83.8547   13.5090 C.ar    1  UNL1        0.0016
      6 C          63.2333   83.7257   12.1913 C.ar    1  UNL1        0.0016
      7 C          62.7581   84.9531   11.4717 C.ar    1  UNL1        0.0188
      8 C          62.9879   86.3094   12.0699 C.ar    1  UNL1        0.0786
      9 N          62.6353   87.6882   11.5960 N.ar    1  UNL1       -0.3134
     10 C          62.9806   90.1609   12.5508 C.3     1  UNL1        0.1744
     11 O          64.4775   90.3325   15.4455 O.2     1  UNL1       -0.2463
     12 C          64.8345   91.1206   14.2202 C.ar    1  UNL1        0.3319
     13 N          64.1465   91.0418   12.8897 N.ar    1  UNL1       -0.2711
     14 C          64.8290   91.9984   11.9574 C.ar    1  UNL1        0.0993
     15 C          64.5832   92.3459   10.5191 C.ar    1  UNL1        0.1176
     16 N          65.4473   93.3635    9.8352 N.ar    1  UNL1       -0.2407
     17 C          66.5572   94.0336   10.5896 C.ar    1  UNL1        0.1005
     18 C          66.8030   93.6861   12.0279 C.ar    1  UNL1        0.0395
     19 C          65.9388   92.6685   12.7118 C.ar    1  UNL1        0.0827
     20 N          65.9423   92.1260   14.1103 N.ar    1  UNL1       -0.2817
     21 C          66.8875   92.5198   15.2064 C.3     1  UNL1        0.0900
     22 C          67.8783   93.4880   15.7819 C.3     1  UNL1        0.0246
     23 C          67.5341   92.2338   16.5293 C.3     1  UNL1        0.0246
     24 C          61.9212   88.0266   10.3211 C.3     1  UNL1        0.1073
     25 C          60.5990   87.3899   10.0103 C.3     1  UNL1        0.0271
     26 C          60.5071   86.3297    8.9532 C.3     1  UNL1        0.0337
     27 C          59.6729   86.5622    7.7284 C.3     1  UNL1        0.1372
     28 O          58.1774   86.6053    7.8365 O.3     1  UNL1       -0.3820
     29 H          57.8466   85.7307    8.0946 H       1  UNL1        0.2104
@<TRIPOS>BOND
     1    11    12    2
     2    12    13   ar
     3    13    10    1
     4    10     1    1
     5     1     2   ar
     6     2     3   ar
     7     3     4   ar
     8     4     5   ar
     9     5     6   ar
    10     6     7   ar
    11     7     8   ar
    12     8     9   ar
    13     9    24    1
    14    24    25    1
    15    25    26    1
    16    26    27    1
    17    27    28    1
    18    13    14   ar
    19    14    15   ar
    20    15    16   ar
    21    16    17   ar
    22    17    18   ar
    23    18    19   ar
    24    19    20   ar
    25    20    21    1
    26    21    22    1
    27    22    23    1
    28    20    12   ar
    29    23    21    1
    30     9     1   ar
    31    19    14   ar
    32     8     3   ar
    33    28    29    1
@<TRIPOS>MOLECULE
*****
 29 33 0 0 0
SMALL
GASTEIGER

@<TRIPOS>ATOM
      1 C          62.9881   89.3099   12.5331 C.ar    1  UNL1        0.1436
      2 N          62.2894   88.7712   11.3200 N.ar    1  UNL1       -0.2290
      3 C          62.4130   87.2765   11.3394 C.ar    1  UNL1        0.0984
      4 C          61.9199   86.2163   10.3998 C.ar    1  UNL1        0.0206
      5 C          62.2019   84.7709   10.6853 C.ar    1  UNL1        0.0016
      6 C          62.9770   84.3858   11.9104 C.ar    1  UNL1        0.0016
      7 C          63.4701   85.4460   12.8500 C.ar    1  UNL1        0.0188
      8 C          63.1881   86.8913   12.5645 C.ar    1  UNL1        0.0786
      9 N          63.5436   88.1480   13.3022 N.ar    1  UNL1       -0.3134
     10 C          63.1100   90.7565   12.9107 C.3     1  UNL1        0.1744
     11 O          64.0775   91.8098    9.9774 O.2     1  UNL1       -0.2463
     12 C          64.8211   91.9886   11.2678 C.ar    1  UNL1        0.3319
     13 N          64.3764   91.5044   12.6161 N.ar    1  UNL1       -0.2711
     14 C          65.4205   91.8995   13.6180 C.ar    1  UNL1        0.0993
     15 C          65.5195   91.6901   15.1000 C.ar    1  UNL1        0.1176
     16 N          66.7084   92.2091   15.8530 N.ar    1  UNL1       -0.2407
     17 C          67.7984   92.9374   15.1239 C.ar    1  UNL1        0.1005
     18 C          67.6994   93.1468   13.6420 C.ar    1  UNL1        0.0395
     19 C          66.5105   92.6278   12.8890 C.ar    1  UNL1        0.0827
     20 N          66.1400   92.6828   11.4365 N.ar    1  UNL1       -0.2817
     21 C          66.9469   93.3203   10.3444 C.3     1  UNL1        0.0900
     22 C          68.0964   93.2730    9.3819 C.3     1  UNL1        0.0246
     23 C          67.1951   94.4715    9.4154 C.3     1  UNL1        0.0246
     24 C          64.3184   88.2288   14.5840 C.3     1  UNL1        0.1073
     25 C          63.6180   88.0395   15.8970 C.3     1  UNL1        0.0271
     26 C          63.5109   86.6700   16.4993 C.3     1  UNL1        0.0337
     27 C          62.3989   86.3563   17.4558 C.3     1  UNL1        0.1372
     28 O          60.9868   86.2607   16.9589 O.3     1  UNL1       -0.3820
     29 H          60.6934   87.1318   16.6490 H       1  UNL1        0.2104
@<TRIPOS>BOND
     1    11    12    2
     2    12    13   ar
     3    13    10    1
     4    10     1    1
     5     1     2   ar
     6     2     3   ar
     7     3     4   ar
     8     4     5   ar
     9     5     6   ar
    10     6     7   ar
    11     7     8   ar
    12     8     9   ar
    13     9    24    1
    14    24    25    1
    15    25    26    1
    16    26    27    1
    17    27    28    1
    18    13    14   ar
    19    14    15   ar
    20    15    16   ar
    21    16    17   ar
    22    17    18   ar
    23    18    19   ar
    24    19    20   ar
    25    20    21    1
    26    21    22    1
    27    22    23    1
    28    20    12   ar
    29    23    21    1
    30     9     1   ar
    31    19    14   ar
    32     8     3   ar
    33    28    29    1
@<TRIPOS>MOLECULE
*****
 29 33 0 0 0
SMALL
GASTEIGER

@<TRIPOS>ATOM
      1 C          62.4276   90.1043   11.9128 C.ar    1  UNL1        0.1436
      2 N          61.4751   90.4764   10.8154 N.ar    1  UNL1       -0.2290
      3 C          61.0726   89.2183   10.1047 C.ar    1  UNL1        0.0984
      4 C          60.1562   88.9709    8.9432 C.ar    1  UNL1        0.0206
      5 C          59.9435   87.5739    8.4400 C.ar    1  UNL1        0.0016
      6 C          60.6471   86.4243    9.0981 C.ar    1  UNL1        0.0016
      7 C          61.5635   86.6717   10.2596 C.ar    1  UNL1        0.0188
      8 C          61.7762   88.0686   10.7629 C.ar    1  UNL1        0.0786
      9 N          62.6137   88.6163   11.8804 N.ar    1  UNL1       -0.3134
     10 C          63.0795   91.0537   12.8740 C.3     1  UNL1        0.1744
     11 O          64.1622   91.9355    9.9244 O.2     1  UNL1       -0.2463
     12 C          64.9305   92.0273   11.2094 C.ar    1  UNL1        0.3319
     13 N          64.4329   91.6220   12.5652 N.ar    1  UNL1       -0.2711
     14 C          65.5262   91.8848   13.5580 C.ar    1  UNL1        0.0993
     15 C          65.6049   91.6805   15.0419 C.ar    1  UNL1        0.1176
     16 N          66.8570   92.0439   15.7836 N.ar    1  UNL1       -0.2407
     17 C          68.0304   92.6117   15.0414 C.ar    1  UNL1        0.1005
     18 C          67.9517   92.8160   13.5575 C.ar    1  UNL1        0.0395
     19 C          66.6996   92.4526   12.8158 C.ar    1  UNL1        0.0827
     20 N          66.3314   92.5406   11.3643 N.ar    1  UNL1       -0.2817
     21 C          67.2100   93.0522   10.2614 C.3     1  UNL1        0.0900
     22 C          67.6056   94.1503    9.3191 C.3     1  UNL1        0.0246
     23 C          68.3359   92.8403    9.2932 C.3     1  UNL1        0.0246
     24 C          63.4843   87.8163   12.8034 C.3     1  UNL1        0.1073
     25 C          64.1715   88.4873   13.9556 C.3     1  UNL1        0.0271
     26 C          64.0340   87.9272   15.3402 C.3     1  UNL1        0.0337
     27 C          63.2319   88.6644   16.3713 C.3     1  UNL1        0.1372
     28 O          62.1338   89.5930   15.9443 O.3     1  UNL1       -0.3820
     29 H          62.5149   90.3460   15.4661 H       1  UNL1        0.2104
@<TRIPOS>BOND
     1    11    12    2
     2    12    13   ar
     3    13    10    1
     4    10     1    1
     5     1     2   ar
     6     2     3   ar
     7     3     4   ar
     8     4     5   ar
     9     5     6   ar
    10     6     7   ar
    11     7     8   ar
    12     8     9   ar
    13     9    24    1
    14    24    25    1
    15    25    26    1
    16    26    27    1
    17    27    28    1
    18    13    14   ar
    19    14    15   ar
    20    15    16   ar
    21    16    17   ar
    22    17    18   ar
    23    18    19   ar
    24    19    20   ar
    25    20    21    1
    26    21    22    1
    27    22    23    1
    28    20    12   ar
    29    23    21    1
    30     9     1   ar
    31    19    14   ar
    32     8     3   ar
    33    28    29    1
@<TRIPOS>MOLECULE
*****
 29 33 0 0 0
SMALL
GASTEIGER

@<TRIPOS>ATOM
      1 C          62.1553   88.5567   11.3496 C.ar    1  UNL1        0.1436
      2 N          62.7799   87.2985   11.8755 N.ar    1  UNL1       -0.2290
      3 C          62.7114   86.2603   10.7951 C.ar    1  UNL1        0.0984
      4 C          63.1701   84.8331   10.7439 C.ar    1  UNL1        0.0206
      5 C          62.9619   84.0225    9.4991 C.ar    1  UNL1        0.0016
      6 C          62.2949   84.6390    8.3054 C.ar    1  UNL1        0.0016
      7 C          61.8361   86.0662    8.3566 C.ar    1  UNL1        0.0188
      8 C          62.0444   86.8768    9.6014 C.ar    1  UNL1        0.0786
      9 N          61.7007   88.2961    9.9441 N.ar    1  UNL1       -0.3134
     10 C          62.0106   89.8488   12.0979 C.3     1  UNL1        0.1744
     11 O          63.4185   91.4877    9.6522 O.2     1  UNL1       -0.2463
     12 C          63.8271   91.5337   11.0947 C.ar    1  UNL1        0.3319
     13 N          63.1800   90.7803   12.2189 N.ar    1  UNL1       -0.2711
     14 C          63.9076   91.1221   13.4853 C.ar    1  UNL1        0.0993
     15 C          63.7131   90.6796   14.9053 C.ar    1  UNL1        0.1176
     16 N          64.6154   91.2017   15.9838 N.ar    1  UNL1       -0.2407
     17 C          65.7122   92.1663   15.6423 C.ar    1  UNL1        0.1005
     18 C          65.9067   92.6088   14.2224 C.ar    1  UNL1        0.0395
     19 C          65.0044   92.0867   13.1439 C.ar    1  UNL1        0.0827
     20 N          64.9547   92.3410   11.6664 N.ar    1  UNL1       -0.2817
     21 C          65.8715   93.2442   10.8959 C.3     1  UNL1        0.0900
     22 C          66.4891   94.5949   10.6851 C.3     1  UNL1        0.0246
     23 C          66.8419   93.4581    9.7723 C.3     1  UNL1        0.0246
     24 C          61.0216   89.2818    9.0401 C.3     1  UNL1        0.1073
     25 C          59.6165   89.0316    8.5783 C.3     1  UNL1        0.0271
     26 C          59.3400   88.7643    7.1284 C.3     1  UNL1        0.0337
     27 C          59.3164   89.8991    6.1479 C.3     1  UNL1        0.1372
     28 O          58.0119   90.3685    5.5750 O.3     1  UNL1       -0.3820
     29 H          57.6310   89.6684    5.0222 H       1  UNL1        0.2104
@<TRIPOS>BOND
     1    11    12    2
     2    12    13   ar
     3    13    10    1
     4    10     1    1
     5     1     2   ar
     6     2     3   ar
     7     3     4   ar
     8     4     5   ar
     9     5     6   ar
    10     6     7   ar
    11     7     8   ar
    12     8     9   ar
    13     9    24    1
    14    24    25    1
    15    25    26    1
    16    26    27    1
    17    27    28    1
    18    13    14   ar
    19    14    15   ar
    20    15    16   ar
    21    16    17   ar
    22    17    18   ar
    23    18    19   ar
    24    19    20   ar
    25    20    21    1
    26    21    22    1
    27    22    23    1
    28    20    12   ar
    29    23    21    1
    30     9     1   ar
    31    19    14   ar
    32     8     3   ar
    33    28    29    1
