@<TRIPOS>MOLECULE
*****
 47 50 0 0 0
SMALL
GASTEIGER

@<TRIPOS>ATOM
      1 C          65.3839   91.1040   14.4998 C.3     1  UNL1        0.0503
      2 C          64.8170   91.0412   13.5668 C.ar    1  UNL1        0.0465
      3 C          63.8217   89.9191   13.5603 C.ar    1  UNL1        0.0703
      4 C          62.9582   89.6895   12.3554 C.ar    1  UNL1        0.2654
      5 O          61.9628   88.5673   12.3488 O.2     1  UNL1       -0.2668
      6 N          63.0901   90.5820   11.1571 N.ar    1  UNL1       -0.2470
      7 C          64.0855   91.7041   11.1637 C.ar    1  UNL1        0.3338
      8 O          64.2763   92.4193   10.3588 O.2     1  UNL1       -0.2462
      9 N          64.9489   91.9337   12.3685 N.ar    1  UNL1       -0.2806
     10 C          63.6897   89.0265   14.7586 C.ar    1  UNL1        0.0362
     11 C          63.2289   89.5931   16.0687 C.ar    1  UNL1        0.0026
     12 C          63.0970   88.7005   17.2671 C.ar    1  UNL1        0.0033
     13 C          63.4259   87.2413   17.1552 C.ar    1  UNL1        0.0392
     14 C          63.8867   86.6747   15.8449 C.ar    1  UNL1        0.1658
     15 C          64.0187   87.5673   14.6467 C.ar    1  UNL1        0.1739
     16 F          64.4795   87.0007   13.3365 F       1  UNL1       -0.2010
     17 O          64.2157   85.2155   15.7331 O.3     1  UNL1       -0.4732
     18 C          63.1368   84.2266   15.4038 C.3     1  UNL1        0.2055
     19 C          63.0594   83.6312   14.0292 C.3     1  UNL1        0.0477
     20 C          62.5148   84.4416   12.8905 C.3     1  UNL1        0.0097
     21 C          63.0286   84.2196   11.4988 C.3     1  UNL1        0.0418
     22 C          63.5816   82.8811   11.1081 C.2     1  UNL1        0.0503
     23 O          64.9264   82.7883   10.4501 O.co2   1  UNL1       -0.5492
     24 O          62.7899   81.6354   11.3754 O.co2   1  UNL1       -0.5492
     25 C          62.2267   90.3524    9.9522 C.3     1  UNL1        0.1339
     26 C          60.9729   89.5378   10.0722 C.3     1  UNL1        0.1033
     27 C          60.8127   88.2843    9.2641 C.ar    1  UNL1       -0.0059
     28 C          61.8613   87.2134    9.3253 C.ar    1  UNL1       -0.0029
     29 C          61.7011   85.9598    8.5173 C.ar    1  UNL1       -0.0003
     30 C          60.4923   85.7772    7.6480 C.ar    1  UNL1       -0.0000
     31 C          59.4438   86.8481    7.5869 C.ar    1  UNL1       -0.0003
     32 C          59.6040   88.1016    8.3949 C.ar    1  UNL1       -0.0029
     33 N          59.8793   89.9768   11.0003 N.3     1  UNL1       -0.2663
     34 C          59.1641   88.9665   11.8475 C.3     1  UNL1        0.0899
     35 C          59.5127   90.9960   11.1499 C.3     1  UNL1        0.0899
     36 C          65.9443   93.0559   12.3751 C.3     1  UNL1        0.1391
     37 C          66.8099   93.2977   11.1741 C.ar    1  UNL1        0.0319
     38 C          67.7488   92.2287   10.6989 C.ar    1  UNL1        0.1379
     39 F          67.8945   91.2380   11.1380 F       1  UNL1       -0.2044
     40 C          68.6144   92.4705    9.4979 C.ar    1  UNL1        0.0294
     41 C          68.5410   93.7812    8.7721 C.ar    1  UNL1        0.0022
     42 C          67.6020   94.8501    9.2473 C.ar    1  UNL1        0.0037
     43 C          66.7365   94.6083   10.4483 C.ar    1  UNL1        0.0714
     44 C          65.7975   95.6773   10.9235 C.3     1  UNL1        0.4184
     45 F          64.8586   96.7462   11.3986 F       1  UNL1       -0.1659
     46 F          66.4976   95.7027   12.2499 F       1  UNL1       -0.1659
     47 F          65.0975   95.6519    9.5972 F       1  UNL1       -0.1659
@<TRIPOS>UNITY_ATOM_ATTR
23 1
charge -1
@<TRIPOS>BOND
     1     1     2    1
     2     2     3   ar
     3     3    10    1
     4    10    11   ar
     5    11    12   ar
     6    12    13   ar
     7    13    14   ar
     8    14    17    1
     9    17    18    1
    10    18    19    1
    11    19    20    1
    12    20    21    1
    13    21    22    1
    14    22    23   ar
    15    22    24   ar
    16    14    15   ar
    17    15    16    1
    18     3     4   ar
    19     4     5    2
    20     4     6   ar
    21     6    25    1
    22    26    25    1
    23    26    27    1
    24    27    28   ar
    25    28    29   ar
    26    29    30   ar
    27    30    31   ar
    28    31    32   ar
    29    26    33    1
    30    33    34    1
    31    33    35    1
    32     6     7   ar
    33     7     8    2
    34     7     9   ar
    35     9    36    1
    36    36    37    1
    37    37    38   ar
    38    38    39    1
    39    38    40   ar
    40    40    41   ar
    41    41    42   ar
    42    42    43   ar
    43    43    44    1
    44    44    45    1
    45    44    46    1
    46    44    47    1
    47     9     2   ar
    48    43    37   ar
    49    15    10   ar
    50    32    27   ar
@<TRIPOS>MOLECULE
*****
 47 50 0 0 0
SMALL
GASTEIGER

@<TRIPOS>ATOM
      1 C          64.7323   86.8287   14.5061 C.3     1  UNL1        0.0503
      2 C          63.9282   86.8018   13.7655 C.ar    1  UNL1        0.0465
      3 C          63.1854   88.1006   13.6595 C.ar    1  UNL1        0.0703
      4 C          62.0494   88.2379   12.6896 C.ar    1  UNL1        0.2654
      5 O          61.3066   89.5368   12.5836 O.2     1  UNL1       -0.2668
      6 N          61.6562   87.0763   11.8258 N.ar    1  UNL1       -0.2470
      7 C          62.3990   85.7775   11.9319 C.ar    1  UNL1        0.3338
      8 O          62.2109   84.8634   11.3621 O.2     1  UNL1       -0.2462
      9 N          63.5350   85.6403   12.9017 N.ar    1  UNL1       -0.2806
     10 C          63.5786   89.2622   14.5233 C.ar    1  UNL1        0.0362
     11 C          63.1826   89.2891   15.9698 C.ar    1  UNL1        0.0026
     12 C          63.5758   90.4508   16.8336 C.ar    1  UNL1        0.0033
     13 C          64.3650   91.5854   16.2508 C.ar    1  UNL1        0.0392
     14 C          64.7611   91.5585   14.8042 C.ar    1  UNL1        0.1658
     15 C          64.3679   90.3969   13.9405 C.ar    1  UNL1        0.1739
     16 F          64.7639   90.3700   12.4939 F       1  UNL1       -0.2010
     17 O          65.5503   92.6932   14.2214 O.3     1  UNL1       -0.4732
     18 C          67.0207   92.5335   13.9716 C.3     1  UNL1        0.2055
     19 C          67.5255   92.3210   12.5751 C.3     1  UNL1        0.0477
     20 C          66.7242   92.8107   11.4054 C.3     1  UNL1        0.0097
     21 C          67.0277   92.3077   10.0252 C.3     1  UNL1        0.0418
     22 C          68.1562   92.9073    9.2398 C.2     1  UNL1        0.0503
     23 O          68.8244   92.1101    8.1589 O.co2   1  UNL1       -0.5492
     24 O          68.6166   94.3040    9.5351 O.co2   1  UNL1       -0.5492
     25 C          60.5202   87.2136   10.8560 C.3     1  UNL1        0.1339
     26 C          60.7960   87.5507    9.4207 C.3     1  UNL1        0.1033
     27 C          61.2863   86.4888    8.4816 C.ar    1  UNL1       -0.0059
     28 C          62.7215   86.0546    8.5240 C.ar    1  UNL1       -0.0029
     29 C          63.2118   84.9926    7.5850 C.ar    1  UNL1       -0.0003
     30 C          62.2669   84.3648    6.6036 C.ar    1  UNL1       -0.0000
     31 C          60.8318   84.7990    6.5612 C.ar    1  UNL1       -0.0003
     32 C          60.3415   85.8610    7.5003 C.ar    1  UNL1       -0.0029
     33 N          60.5815   88.9499    8.9243 N.3     1  UNL1       -0.2663
     34 C          59.7087   89.1963    7.7295 C.3     1  UNL1        0.0899
     35 C          61.0020   89.8684    9.3429 C.3     1  UNL1        0.0899
     36 C          64.2779   84.3414   13.0078 C.3     1  UNL1        0.1391
     37 C          63.5208   83.0526   13.1339 C.ar    1  UNL1        0.0319
     38 C          63.6084   82.0219   12.0475 C.ar    1  UNL1        0.1379
     39 F          64.1852   82.0897   11.1211 F       1  UNL1       -0.2044
     40 C          62.8514   80.7331   12.1736 C.ar    1  UNL1        0.0294
     41 C          62.0067   80.4750   13.3861 C.ar    1  UNL1        0.0022
     42 C          61.9191   81.5057   14.4724 C.ar    1  UNL1        0.0037
     43 C          62.6762   82.7945   14.3463 C.ar    1  UNL1        0.0714
     44 C          62.5886   83.8252   15.4326 C.3     1  UNL1        0.4184
     45 F          62.5010   84.8558   16.5189 F       1  UNL1       -0.1659
     46 F          61.2870   84.3107   14.8670 F       1  UNL1       -0.1659
     47 F          63.8902   83.3396   15.9982 F       1  UNL1       -0.1659
@<TRIPOS>UNITY_ATOM_ATTR
23 1
charge -1
@<TRIPOS>BOND
     1     1     2    1
     2     2     3   ar
     3     3    10    1
     4    10    11   ar
     5    11    12   ar
     6    12    13   ar
     7    13    14   ar
     8    14    17    1
     9    17    18    1
    10    18    19    1
    11    19    20    1
    12    20    21    1
    13    21    22    1
    14    22    23   ar
    15    22    24   ar
    16    14    15   ar
    17    15    16    1
    18     3     4   ar
    19     4     5    2
    20     4     6   ar
    21     6    25    1
    22    26    25    1
    23    26    27    1
    24    27    28   ar
    25    28    29   ar
    26    29    30   ar
    27    30    31   ar
    28    31    32   ar
    29    26    33    1
    30    33    34    1
    31    33    35    1
    32     6     7   ar
    33     7     8    2
    34     7     9   ar
    35     9    36    1
    36    36    37    1
    37    37    38   ar
    38    38    39    1
    39    38    40   ar
    40    40    41   ar
    41    41    42   ar
    42    42    43   ar
    43    43    44    1
    44    44    45    1
    45    44    46    1
    46    44    47    1
    47     9     2   ar
    48    43    37   ar
    49    15    10   ar
    50    32    27   ar
@<TRIPOS>MOLECULE
*****
 47 50 0 0 0
SMALL
GASTEIGER

@<TRIPOS>ATOM
      1 C          64.8922   90.4292   15.2504 C.3     1  UNL1        0.0503
      2 C          64.5016   90.3663   14.2310 C.ar    1  UNL1        0.0465
      3 C          63.7483   89.0959   13.9694 C.ar    1  UNL1        0.0703
      4 C          63.1443   88.8466   12.6192 C.ar    1  UNL1        0.2654
      5 O          62.3910   87.5760   12.3576 O.2     1  UNL1       -0.2668
      6 N          63.2936   89.8676   11.5306 N.ar    1  UNL1       -0.2470
      7 C          64.0469   91.1381   11.7923 C.ar    1  UNL1        0.3338
      8 O          64.2247   91.9549   11.0873 O.2     1  UNL1       -0.2462
      9 N          64.6509   91.3874   13.1425 N.ar    1  UNL1       -0.2806
     10 C          63.5989   88.0747   15.0580 C.ar    1  UNL1        0.0362
     11 C          63.0848   88.4852   16.4060 C.ar    1  UNL1        0.0026
     12 C          62.9354   87.4641   17.4946 C.ar    1  UNL1        0.0033
     13 C          63.3001   86.0324   17.2351 C.ar    1  UNL1        0.0392
     14 C          63.8142   85.6219   15.8870 C.ar    1  UNL1        0.1658
     15 C          63.9636   86.6431   14.7985 C.ar    1  UNL1        0.1739
     16 F          64.4777   86.2326   13.4504 F       1  UNL1       -0.2010
     17 O          64.1790   84.1903   15.6275 O.3     1  UNL1       -0.4732
     18 C          63.3692   83.3726   14.6653 C.3     1  UNL1        0.2055
     19 C          63.9928   82.2002   13.9676 C.3     1  UNL1        0.0477
     20 C          63.1451   81.2861   13.1335 C.3     1  UNL1        0.0097
     21 C          62.9009   81.6014   11.6875 C.3     1  UNL1        0.0418
     22 C          63.5529   82.7978   11.0602 C.2     1  UNL1        0.0503
     23 O          64.8371   82.6404   10.3011 O.co2   1  UNL1       -0.5492
     24 O          62.9207   84.1517   11.1920 O.co2   1  UNL1       -0.5492
     25 C          62.6897   89.6183   10.1804 C.3     1  UNL1        0.1339
     26 C          61.2905   89.0891   10.0708 C.3     1  UNL1        0.1033
     27 C          60.9969   87.9258    9.1704 C.ar    1  UNL1       -0.0059
     28 C          59.6973   87.8645    8.4239 C.ar    1  UNL1       -0.0029
     29 C          59.4037   86.7012    7.5236 C.ar    1  UNL1       -0.0003
     30 C          60.4099   85.5993    7.3697 C.ar    1  UNL1       -0.0000
     31 C          61.7095   85.6607    8.1162 C.ar    1  UNL1       -0.0003
     32 C          62.0030   86.8240    9.0165 C.ar    1  UNL1       -0.0029
     33 N          60.1847   89.7231   10.8616 N.3     1  UNL1       -0.2663
     34 C          59.4140   88.9097   11.8588 C.3     1  UNL1        0.0899
     35 C          59.8460   90.7612   10.8040 C.3     1  UNL1        0.0899
     36 C          65.4042   92.6579   13.4041 C.3     1  UNL1        0.1391
     37 C          66.7072   92.6180   14.1462 C.ar    1  UNL1        0.0319
     38 C          66.7349   92.8598   15.6264 C.ar    1  UNL1        0.1379
     39 F          65.8806   93.0740   16.2743 F       1  UNL1       -0.2044
     40 C          68.0379   92.8199   16.3685 C.ar    1  UNL1        0.0294
     41 C          69.3131   92.5382   15.6305 C.ar    1  UNL1        0.0022
     42 C          69.2853   92.2964   14.1504 C.ar    1  UNL1        0.0037
     43 C          67.9823   92.3363   13.4082 C.ar    1  UNL1        0.0714
     44 C          67.9546   92.0946   11.9281 C.3     1  UNL1        0.4184
     45 F          67.9268   91.8528   10.4480 F       1  UNL1       -0.1659
     46 F          68.8353   90.8937   12.1077 F       1  UNL1       -0.1659
     47 F          67.0738   93.2954   11.7485 F       1  UNL1       -0.1659
@<TRIPOS>UNITY_ATOM_ATTR
23 1
charge -1
@<TRIPOS>BOND
     1     1     2    1
     2     2     3   ar
     3     3    10    1
     4    10    11   ar
     5    11    12   ar
     6    12    13   ar
     7    13    14   ar
     8    14    17    1
     9    17    18    1
    10    18    19    1
    11    19    20    1
    12    20    21    1
    13    21    22    1
    14    22    23   ar
    15    22    24   ar
    16    14    15   ar
    17    15    16    1
    18     3     4   ar
    19     4     5    2
    20     4     6   ar
    21     6    25    1
    22    26    25    1
    23    26    27    1
    24    27    28   ar
    25    28    29   ar
    26    29    30   ar
    27    30    31   ar
    28    31    32   ar
    29    26    33    1
    30    33    34    1
    31    33    35    1
    32     6     7   ar
    33     7     8    2
    34     7     9   ar
    35     9    36    1
    36    36    37    1
    37    37    38   ar
    38    38    39    1
    39    38    40   ar
    40    40    41   ar
    41    41    42   ar
    42    42    43   ar
    43    43    44    1
    44    44    45    1
    45    44    46    1
    46    44    47    1
    47     9     2   ar
    48    43    37   ar
    49    15    10   ar
    50    32    27   ar
@<TRIPOS>MOLECULE
*****
 47 50 0 0 0
SMALL
GASTEIGER

@<TRIPOS>ATOM
      1 C          64.7111   87.0257   14.5500 C.3     1  UNL1        0.0503
      2 C          63.9007   86.9849   13.8171 C.ar    1  UNL1        0.0465
      3 C          63.2277   88.3098   13.6131 C.ar    1  UNL1        0.0703
      4 C          62.0926   88.4325   12.6402 C.ar    1  UNL1        0.2654
      5 O          61.4196   89.7575   12.4363 O.2     1  UNL1       -0.2668
      6 N          61.6306   87.2304   11.8713 N.ar    1  UNL1       -0.2470
      7 C          62.3036   85.9055   12.0752 C.ar    1  UNL1        0.3338
      8 O          62.0621   84.9614   11.5793 O.2     1  UNL1       -0.2462
      9 N          63.4386   85.7827   13.0482 N.ar    1  UNL1       -0.2806
     10 C          63.6897   89.5120   14.3821 C.ar    1  UNL1        0.0362
     11 C          63.3607   89.6419   15.8398 C.ar    1  UNL1        0.0026
     12 C          63.8228   90.8441   16.6087 C.ar    1  UNL1        0.0033
     13 C          64.6138   91.9164   15.9200 C.ar    1  UNL1        0.0392
     14 C          64.9427   91.7865   14.4622 C.ar    1  UNL1        0.1658
     15 C          64.4807   90.5844   13.6933 C.ar    1  UNL1        0.1739
     16 F          64.8096   90.4544   12.2355 F       1  UNL1       -0.2010
     17 O          65.7337   92.8589   13.7734 O.3     1  UNL1       -0.4732
     18 C          65.6644   93.0009   12.2817 C.3     1  UNL1        0.2055
     19 C          66.1537   94.2573   11.6244 C.3     1  UNL1        0.0477
     20 C          66.3130   94.3110   10.1339 C.3     1  UNL1        0.0097
     21 C          67.6709   94.1459    9.5183 C.3     1  UNL1        0.0418
     22 C          68.3208   92.7944    9.4868 C.2     1  UNL1        0.0503
     23 O          68.7306   92.1897    8.1766 O.co2   1  UNL1       -0.5492
     24 O          68.5610   92.0476   10.7653 O.co2   1  UNL1       -0.5492
     25 C          60.4955   87.3531   10.8984 C.3     1  UNL1        0.1339
     26 C          60.7744   87.6413    9.4530 C.3     1  UNL1        0.1033
     27 C          61.2903   86.5542    8.5574 C.ar    1  UNL1       -0.0059
     28 C          62.7208   86.1142    8.6594 C.ar    1  UNL1       -0.0029
     29 C          63.2367   85.0271    7.7638 C.ar    1  UNL1       -0.0003
     30 C          62.3221   84.3800    6.7663 C.ar    1  UNL1       -0.0000
     31 C          60.8918   84.8200    6.6644 C.ar    1  UNL1       -0.0003
     32 C          60.3759   85.9071    7.5600 C.ar    1  UNL1       -0.0029
     33 N          60.5374   89.0167    8.9031 N.3     1  UNL1       -0.2663
     34 C          59.6329   89.2065    7.7217 C.3     1  UNL1        0.0899
     35 C          60.9619   89.9548    9.2713 C.3     1  UNL1        0.0899
     36 C          64.1117   84.4578   13.2521 C.3     1  UNL1        0.1391
     37 C          63.2906   83.2058   13.3437 C.ar    1  UNL1        0.0319
     38 C          62.4131   82.9700   14.5372 C.ar    1  UNL1        0.1379
     39 F          62.2851   83.6289   15.4003 F       1  UNL1       -0.2044
     40 C          61.5921   81.7180   14.6288 C.ar    1  UNL1        0.0294
     41 C          61.6486   80.7017   13.5269 C.ar    1  UNL1        0.0022
     42 C          62.5261   80.9375   12.3334 C.ar    1  UNL1        0.0037
     43 C          63.3471   82.1896   12.2419 C.ar    1  UNL1        0.0714
     44 C          64.2247   82.4253   11.0483 C.3     1  UNL1        0.4184
     45 F          65.1022   82.6611    9.8549 F       1  UNL1       -0.1659
     46 F          63.0110   82.6949   10.2092 F       1  UNL1       -0.1659
     47 F          65.4383   82.1558   11.8875 F       1  UNL1       -0.1659
@<TRIPOS>UNITY_ATOM_ATTR
23 1
charge -1
@<TRIPOS>BOND
     1     1     2    1
     2     2     3   ar
     3     3    10    1
     4    10    11   ar
     5    11    12   ar
     6    12    13   ar
     7    13    14   ar
     8    14    17    1
     9    17    18    1
    10    18    19    1
    11    19    20    1
    12    20    21    1
    13    21    22    1
    14    22    23   ar
    15    22    24   ar
    16    14    15   ar
    17    15    16    1
    18     3     4   ar
    19     4     5    2
    20     4     6   ar
    21     6    25    1
    22    26    25    1
    23    26    27    1
    24    27    28   ar
    25    28    29   ar
    26    29    30   ar
    27    30    31   ar
    28    31    32   ar
    29    26    33    1
    30    33    34    1
    31    33    35    1
    32     6     7   ar
    33     7     8    2
    34     7     9   ar
    35     9    36    1
    36    36    37    1
    37    37    38   ar
    38    38    39    1
    39    38    40   ar
    40    40    41   ar
    41    41    42   ar
    42    42    43   ar
    43    43    44    1
    44    44    45    1
    45    44    46    1
    46    44    47    1
    47     9     2   ar
    48    43    37   ar
    49    15    10   ar
    50    32    27   ar
@<TRIPOS>MOLECULE
*****
 47 50 0 0 0
SMALL
GASTEIGER

@<TRIPOS>ATOM
      1 C          62.1647   88.9457   10.2358 C.3     1  UNL1        0.0503
      2 C          62.5706   88.3811   11.0797 C.ar    1  UNL1        0.0465
      3 C          62.6222   86.9036   10.8258 C.ar    1  UNL1        0.0703
      4 C          63.1529   85.9793   11.8812 C.ar    1  UNL1        0.2654
      5 O          63.2044   84.5018   11.6272 O.2     1  UNL1       -0.2668
      6 N          63.6320   86.5324   13.1906 N.ar    1  UNL1       -0.2470
      7 C          63.5804   88.0098   13.4445 C.ar    1  UNL1        0.3338
      8 O          63.8973   88.5333   14.3508 O.2     1  UNL1       -0.2462
      9 N          63.0497   88.9341   12.3890 N.ar    1  UNL1       -0.2806
     10 C          62.1430   86.3505    9.5164 C.ar    1  UNL1        0.0362
     11 C          63.0710   85.5417    8.6592 C.ar    1  UNL1        0.0026
     12 C          62.5918   84.9886    7.3498 C.ar    1  UNL1        0.0033
     13 C          61.1847   85.2442    6.8976 C.ar    1  UNL1        0.0392
     14 C          60.2566   86.0530    7.7548 C.ar    1  UNL1        0.1658
     15 C          60.7358   86.6061    9.0641 C.ar    1  UNL1        0.1739
     16 F          59.8078   87.4149    9.9213 F       1  UNL1       -0.2010
     17 O          58.8495   86.3086    7.3026 O.3     1  UNL1       -0.4732
     18 C          58.3521   87.7165    7.1583 C.3     1  UNL1        0.2055
     19 C          59.3203   88.8300    6.8886 C.3     1  UNL1        0.0477
     20 C          58.8133   90.1856    6.4946 C.3     1  UNL1        0.0097
     21 C          59.3838   90.8797    5.2935 C.3     1  UNL1        0.0418
     22 C          58.5720   91.9109    4.5672 C.2     1  UNL1        0.0503
     23 O          59.1993   92.7276    3.4765 O.co2   1  UNL1       -0.5492
     24 O          57.1328   92.1254    4.9315 O.co2   1  UNL1       -0.5492
     25 C          64.1627   85.6081   14.2460 C.3     1  UNL1        0.1339
     26 C          63.2221   84.7268   15.0131 C.3     1  UNL1        0.1033
     27 C          63.0162   83.3023   14.5907 C.ar    1  UNL1       -0.0059
     28 C          64.1847   82.4782   14.1371 C.ar    1  UNL1       -0.0029
     29 C          63.9789   81.0537   13.7147 C.ar    1  UNL1       -0.0003
     30 C          62.6046   80.4532   13.7460 C.ar    1  UNL1       -0.0000
     31 C          61.4362   81.2773   14.1996 C.ar    1  UNL1       -0.0003
     32 C          61.6420   82.7018   14.6220 C.ar    1  UNL1       -0.0029
     33 N          62.4872   85.2700   16.2026 N.3     1  UNL1       -0.2663
     34 C          63.2489   85.8951   17.3335 C.3     1  UNL1        0.0899
     35 C          61.4057   85.2707   16.3641 C.3     1  UNL1        0.0899
     36 C          62.9982   90.4116   12.6430 C.3     1  UNL1        0.1391
     37 C          64.1678   91.2767   12.2775 C.ar    1  UNL1        0.0319
     38 C          64.3534   91.7267   10.8586 C.ar    1  UNL1        0.1379
     39 F          63.7109   91.4939   10.0050 F       1  UNL1       -0.2044
     40 C          65.5230   92.5918   10.4931 C.ar    1  UNL1        0.0294
     41 C          66.5071   93.0068   11.5464 C.ar    1  UNL1        0.0022
     42 C          66.3215   92.5568   12.9652 C.ar    1  UNL1        0.0037
     43 C          65.1519   91.6917   13.3307 C.ar    1  UNL1        0.0714
     44 C          64.9663   91.2417   14.7496 C.3     1  UNL1        0.4184
     45 F          64.7808   90.7917   16.1684 F       1  UNL1       -0.1659
     46 F          63.5281   91.6643   14.6956 F       1  UNL1       -0.1659
     47 F          66.4045   90.8191   14.8036 F       1  UNL1       -0.1659
@<TRIPOS>UNITY_ATOM_ATTR
23 1
charge -1
@<TRIPOS>BOND
     1     1     2    1
     2     2     3   ar
     3     3    10    1
     4    10    11   ar
     5    11    12   ar
     6    12    13   ar
     7    13    14   ar
     8    14    17    1
     9    17    18    1
    10    18    19    1
    11    19    20    1
    12    20    21    1
    13    21    22    1
    14    22    23   ar
    15    22    24   ar
    16    14    15   ar
    17    15    16    1
    18     3     4   ar
    19     4     5    2
    20     4     6   ar
    21     6    25    1
    22    26    25    1
    23    26    27    1
    24    27    28   ar
    25    28    29   ar
    26    29    30   ar
    27    30    31   ar
    28    31    32   ar
    29    26    33    1
    30    33    34    1
    31    33    35    1
    32     6     7   ar
    33     7     8    2
    34     7     9   ar
    35     9    36    1
    36    36    37    1
    37    37    38   ar
    38    38    39    1
    39    38    40   ar
    40    40    41   ar
    41    41    42   ar
    42    42    43   ar
    43    43    44    1
    44    44    45    1
    45    44    46    1
    46    44    47    1
    47     9     2   ar
    48    43    37   ar
    49    15    10   ar
    50    32    27   ar
@<TRIPOS>MOLECULE
*****
 47 50 0 0 0
SMALL
GASTEIGER

@<TRIPOS>ATOM
      1 C          63.0464   85.6969   12.1400 C.3     1  UNL1        0.0503
      2 C          63.1965   86.7479   12.4016 C.ar    1  UNL1        0.0465
      3 C          62.6616   87.6918   11.3659 C.ar    1  UNL1        0.0703
      4 C          62.7845   89.1733   11.5664 C.ar    1  UNL1        0.2654
      5 O          62.2496   90.1173   10.5306 O.2     1  UNL1       -0.2668
      6 N          63.4423   89.7108   12.8027 N.ar    1  UNL1       -0.2470
      7 C          63.9772   88.7668   13.8384 C.ar    1  UNL1        0.3338
      8 O          64.4743   89.0312   14.7758 O.2     1  UNL1       -0.2462
      9 N          63.8543   87.2853   13.6379 N.ar    1  UNL1       -0.2806
     10 C          62.0038   87.1544   10.1296 C.ar    1  UNL1        0.0362
     11 C          62.7461   86.2038    9.2378 C.ar    1  UNL1        0.0026
     12 C          62.0883   85.6663    8.0015 C.ar    1  UNL1        0.0033
     13 C          60.6881   86.0795    7.6570 C.ar    1  UNL1        0.0392
     14 C          59.9457   87.0302    8.5488 C.ar    1  UNL1        0.1658
     15 C          60.6036   87.5676    9.7850 C.ar    1  UNL1        0.1739
     16 F          59.8612   88.5183   10.6768 F       1  UNL1       -0.2010
     17 O          58.5455   87.4434    8.2042 O.3     1  UNL1       -0.4732
     18 C          58.3045   88.4254    7.0962 C.3     1  UNL1        0.2055
     19 C          59.2247   89.5966    6.9187 C.3     1  UNL1        0.0477
     20 C          59.7300   89.9531    5.5521 C.3     1  UNL1        0.0097
     21 C          59.8708   91.3931    5.1566 C.3     1  UNL1        0.0418
     22 C          58.7780   92.0685    4.3822 C.2     1  UNL1        0.0503
     23 O          59.0847   92.7239    3.0682 O.co2   1  UNL1       -0.5492
     24 O          57.3786   92.0885    4.9217 O.co2   1  UNL1       -0.5492
     25 C          63.5653   91.1922   13.0032 C.3     1  UNL1        0.1339
     26 C          64.8625   91.8842   12.7062 C.3     1  UNL1        0.1033
     27 C          65.8994   92.0274   13.7807 C.ar    1  UNL1       -0.0059
     28 C          67.3522   91.8573   13.4484 C.ar    1  UNL1       -0.0029
     29 C          68.3890   92.0005   14.5229 C.ar    1  UNL1       -0.0003
     30 C          67.9730   92.3138   15.9296 C.ar    1  UNL1       -0.0000
     31 C          66.5202   92.4838   16.2619 C.ar    1  UNL1       -0.0003
     32 C          65.4834   92.3406   15.1874 C.ar    1  UNL1       -0.0029
     33 N          65.1230   92.4330   11.3347 N.3     1  UNL1       -0.2663
     34 C          65.7759   93.7739   11.1750 C.3     1  UNL1        0.0899
     35 C          64.8860   91.9567   10.3794 C.3     1  UNL1        0.0899
     36 C          64.3892   86.3413   14.6737 C.3     1  UNL1        0.1391
     37 C          63.9647   84.9027   14.6679 C.ar    1  UNL1        0.0319
     38 C          64.6655   83.9174   13.7801 C.ar    1  UNL1        0.1379
     39 F          65.4938   84.1211   13.0960 F       1  UNL1       -0.2044
     40 C          64.2409   82.4788   13.7743 C.ar    1  UNL1        0.0294
     41 C          63.1155   82.0254   14.6564 C.ar    1  UNL1        0.0022
     42 C          62.4148   83.0106   15.5442 C.ar    1  UNL1        0.0037
     43 C          62.8394   84.4493   15.5500 C.ar    1  UNL1        0.0714
     44 C          62.1386   85.4345   16.4379 C.3     1  UNL1        0.4184
     45 F          61.4378   86.4197   17.3257 F       1  UNL1       -0.1659
     46 F          63.4051   85.6338   17.2164 F       1  UNL1       -0.1659
     47 F          60.8721   85.2352   15.6593 F       1  UNL1       -0.1659
@<TRIPOS>UNITY_ATOM_ATTR
23 1
charge -1
@<TRIPOS>BOND
     1     1     2    1
     2     2     3   ar
     3     3    10    1
     4    10    11   ar
     5    11    12   ar
     6    12    13   ar
     7    13    14   ar
     8    14    17    1
     9    17    18    1
    10    18    19    1
    11    19    20    1
    12    20    21    1
    13    21    22    1
    14    22    23   ar
    15    22    24   ar
    16    14    15   ar
    17    15    16    1
    18     3     4   ar
    19     4     5    2
    20     4     6   ar
    21     6    25    1
    22    26    25    1
    23    26    27    1
    24    27    28   ar
    25    28    29   ar
    26    29    30   ar
    27    30    31   ar
    28    31    32   ar
    29    26    33    1
    30    33    34    1
    31    33    35    1
    32     6     7   ar
    33     7     8    2
    34     7     9   ar
    35     9    36    1
    36    36    37    1
    37    37    38   ar
    38    38    39    1
    39    38    40   ar
    40    40    41   ar
    41    41    42   ar
    42    42    43   ar
    43    43    44    1
    44    44    45    1
    45    44    46    1
    46    44    47    1
    47     9     2   ar
    48    43    37   ar
    49    15    10   ar
    50    32    27   ar
@<TRIPOS>MOLECULE
*****
 47 50 0 0 0
SMALL
GASTEIGER

@<TRIPOS>ATOM
      1 C          64.6597   86.7878   14.3312 C.3     1  UNL1        0.0503
      2 C          63.8471   86.7473   13.6008 C.ar    1  UNL1        0.0465
      3 C          63.1030   88.0440   13.4793 C.ar    1  UNL1        0.0703
      4 C          61.9556   88.1634   12.5205 C.ar    1  UNL1        0.2654
      5 O          61.2115   89.4602   12.3991 O.2     1  UNL1       -0.2668
      6 N          61.5524   86.9861   11.6832 N.ar    1  UNL1       -0.2470
      7 C          62.2965   85.6894   11.8046 C.ar    1  UNL1        0.3338
      8 O          62.1017   84.7648   11.2541 O.2     1  UNL1       -0.2462
      9 N          63.4438   85.5700   12.7634 N.ar    1  UNL1       -0.2806
     10 C          63.5063   89.2214   14.3168 C.ar    1  UNL1        0.0362
     11 C          63.2506   89.2133   15.7948 C.ar    1  UNL1        0.0026
     12 C          63.6539   90.3907   16.6322 C.ar    1  UNL1        0.0033
     13 C          64.3128   91.5762   15.9915 C.ar    1  UNL1        0.0392
     14 C          64.5684   91.5843   14.5134 C.ar    1  UNL1        0.1658
     15 C          64.1652   90.4069   13.6761 C.ar    1  UNL1        0.1739
     16 F          64.4208   90.4150   12.1980 F       1  UNL1       -0.2010
     17 O          65.2273   92.7698   13.8727 O.3     1  UNL1       -0.4732
     18 C          65.5431   92.7508   12.4064 C.3     1  UNL1        0.2055
     19 C          66.9709   92.7488   11.9467 C.3     1  UNL1        0.0477
     20 C          67.9723   91.8533   12.6137 C.3     1  UNL1        0.0097
     21 C          67.8216   91.5104   14.0662 C.3     1  UNL1        0.0418
     22 C          68.3701   92.4317   15.1152 C.2     1  UNL1        0.0503
     23 O          67.6782   92.5560   16.4403 O.co2   1  UNL1       -0.5492
     24 O          69.6104   93.2287   14.8390 O.co2   1  UNL1       -0.5492
     25 C          60.4050   87.1055   10.7243 C.3     1  UNL1        0.1339
     26 C          60.6620   87.4415    9.2853 C.3     1  UNL1        0.1033
     27 C          61.2196   86.4008    8.3601 C.ar    1  UNL1       -0.0059
     28 C          62.6757   86.0457    8.4211 C.ar    1  UNL1       -0.0029
     29 C          63.2333   85.0049    7.4960 C.ar    1  UNL1       -0.0003
     30 C          62.3347   84.3192    6.5098 C.ar    1  UNL1       -0.0000
     31 C          60.8787   84.6744    6.4488 C.ar    1  UNL1       -0.0003
     32 C          60.3211   85.7151    7.3739 C.ar    1  UNL1       -0.0029
     33 N          60.3615   88.8184    8.7713 N.3     1  UNL1       -0.2663
     34 C          60.7877   90.0222    9.5581 C.3     1  UNL1        0.0899
     35 C          59.8422   89.0759    7.8441 C.3     1  UNL1        0.0899
     36 C          64.1879   84.2732   12.8848 C.3     1  UNL1        0.1391
     37 C          63.4335   82.9904   13.0728 C.ar    1  UNL1        0.0319
     38 C          63.4746   81.9333   12.0093 C.ar    1  UNL1        0.1379
     39 F          64.0135   81.9766   11.0589 F       1  UNL1       -0.2044
     40 C          62.7202   80.6506   12.1973 C.ar    1  UNL1        0.0294
     41 C          61.9247   80.4248   13.4489 C.ar    1  UNL1        0.0022
     42 C          61.8836   81.4819   14.5123 C.ar    1  UNL1        0.0037
     43 C          62.6381   82.7646   14.3243 C.ar    1  UNL1        0.0714
     44 C          62.5970   83.8217   15.3878 C.3     1  UNL1        0.4184
     45 F          62.5558   84.8787   16.4513 F       1  UNL1       -0.1659
     46 F          63.9181   83.3441   15.9136 F       1  UNL1       -0.1659
     47 F          61.2759   84.2993   14.8620 F       1  UNL1       -0.1659
@<TRIPOS>UNITY_ATOM_ATTR
23 1
charge -1
@<TRIPOS>BOND
     1     1     2    1
     2     2     3   ar
     3     3    10    1
     4    10    11   ar
     5    11    12   ar
     6    12    13   ar
     7    13    14   ar
     8    14    17    1
     9    17    18    1
    10    18    19    1
    11    19    20    1
    12    20    21    1
    13    21    22    1
    14    22    23   ar
    15    22    24   ar
    16    14    15   ar
    17    15    16    1
    18     3     4   ar
    19     4     5    2
    20     4     6   ar
    21     6    25    1
    22    26    25    1
    23    26    27    1
    24    27    28   ar
    25    28    29   ar
    26    29    30   ar
    27    30    31   ar
    28    31    32   ar
    29    26    33    1
    30    33    34    1
    31    33    35    1
    32     6     7   ar
    33     7     8    2
    34     7     9   ar
    35     9    36    1
    36    36    37    1
    37    37    38   ar
    38    38    39    1
    39    38    40   ar
    40    40    41   ar
    41    41    42   ar
    42    42    43   ar
    43    43    44    1
    44    44    45    1
    45    44    46    1
    46    44    47    1
    47     9     2   ar
    48    43    37   ar
    49    15    10   ar
    50    32    27   ar
@<TRIPOS>MOLECULE
*****
 47 50 0 0 0
SMALL
GASTEIGER

@<TRIPOS>ATOM
      1 C          62.8571   87.0719   12.4443 C.3     1  UNL1        0.0503
      2 C          63.2341   88.0976   12.4823 C.ar    1  UNL1        0.0465
      3 C          62.6487   88.9769   11.4174 C.ar    1  UNL1        0.0703
      4 C          63.0577   90.4171   11.3253 C.ar    1  UNL1        0.2654
      5 O          62.4722   91.2964   10.2604 O.2     1  UNL1       -0.2668
      6 N          64.0521   90.9780   12.2982 N.ar    1  UNL1       -0.2470
      7 C          64.6376   90.0987   13.3630 C.ar    1  UNL1        0.3338
      8 O          65.3662   90.3855   14.1263 O.2     1  UNL1       -0.2462
      9 N          64.2286   88.6585   13.4551 N.ar    1  UNL1       -0.2806
     10 C          61.6542   88.4160   10.4445 C.ar    1  UNL1        0.0362
     11 C          60.2177   88.8427   10.5105 C.ar    1  UNL1        0.0026
     12 C          59.2232   88.2818    9.5376 C.ar    1  UNL1        0.0033
     13 C          59.6653   87.2942    8.4987 C.ar    1  UNL1        0.0392
     14 C          61.1019   86.8676    8.4327 C.ar    1  UNL1        0.1658
     15 C          62.0963   87.4285    9.4056 C.ar    1  UNL1        0.1739
     16 F          63.5329   87.0018    9.3396 F       1  UNL1       -0.2010
     17 O          61.5440   85.8800    7.3938 O.3     1  UNL1       -0.4732
     18 C          62.7029   84.9686    7.6705 C.3     1  UNL1        0.2055
     19 C          62.6829   84.0743    8.8745 C.3     1  UNL1        0.0477
     20 C          63.8682   84.0256    9.7924 C.3     1  UNL1        0.0097
     21 C          64.2867   82.7237   10.4086 C.3     1  UNL1        0.0418
     22 C          63.2487   81.7511   10.8846 C.2     1  UNL1        0.0503
     23 O          62.4488   82.0515   12.1175 O.co2   1  UNL1       -0.5492
     24 O          63.0104   80.4782   10.1276 O.co2   1  UNL1       -0.5492
     25 C          64.4611   92.4183   12.2061 C.3     1  UNL1        0.1339
     26 C          65.9142   92.7888   12.2390 C.3     1  UNL1        0.1033
     27 C          66.6498   93.0538   10.9588 C.ar    1  UNL1       -0.0059
     28 C          67.6472   92.0572   10.4468 C.ar    1  UNL1       -0.0029
     29 C          68.3828   92.3222    9.1667 C.ar    1  UNL1       -0.0003
     30 C          68.1210   93.5838    8.3986 C.ar    1  UNL1       -0.0000
     31 C          67.1236   94.5803    8.9106 C.ar    1  UNL1       -0.0003
     32 C          66.3880   94.3153   10.1907 C.ar    1  UNL1       -0.0029
     33 N          66.6318   92.8944   13.5520 N.3     1  UNL1       -0.2663
     34 C          67.8359   92.0408   13.8194 C.3     1  UNL1        0.0899
     35 C          66.3784   93.5501   14.3896 C.3     1  UNL1        0.0899
     36 C          64.8141   87.7792   14.5201 C.3     1  UNL1        0.1391
     37 C          63.9336   87.2176   15.5968 C.ar    1  UNL1        0.0319
     38 C          63.3330   88.1290   16.6259 C.ar    1  UNL1        0.1379
     39 F          63.4596   89.2126   16.6993 F       1  UNL1       -0.2044
     40 C          62.4525   87.5674   17.7026 C.ar    1  UNL1        0.0294
     41 C          62.1726   86.0945   17.7504 C.ar    1  UNL1        0.0022
     42 C          62.7732   85.1832   16.7214 C.ar    1  UNL1        0.0037
     43 C          63.6537   85.7448   15.6446 C.ar    1  UNL1        0.0714
     44 C          64.2542   84.8334   14.6156 C.3     1  UNL1        0.4184
     45 F          64.8548   83.9221   13.5867 F       1  UNL1       -0.1659
     46 F          62.8826   84.3636   14.2311 F       1  UNL1       -0.1659
     47 F          65.6259   85.3032   15.0001 F       1  UNL1       -0.1659
@<TRIPOS>UNITY_ATOM_ATTR
23 1
charge -1
@<TRIPOS>BOND
     1     1     2    1
     2     2     3   ar
     3     3    10    1
     4    10    11   ar
     5    11    12   ar
     6    12    13   ar
     7    13    14   ar
     8    14    17    1
     9    17    18    1
    10    18    19    1
    11    19    20    1
    12    20    21    1
    13    21    22    1
    14    22    23   ar
    15    22    24   ar
    16    14    15   ar
    17    15    16    1
    18     3     4   ar
    19     4     5    2
    20     4     6   ar
    21     6    25    1
    22    26    25    1
    23    26    27    1
    24    27    28   ar
    25    28    29   ar
    26    29    30   ar
    27    30    31   ar
    28    31    32   ar
    29    26    33    1
    30    33    34    1
    31    33    35    1
    32     6     7   ar
    33     7     8    2
    34     7     9   ar
    35     9    36    1
    36    36    37    1
    37    37    38   ar
    38    38    39    1
    39    38    40   ar
    40    40    41   ar
    41    41    42   ar
    42    42    43   ar
    43    43    44    1
    44    44    45    1
    45    44    46    1
    46    44    47    1
    47     9     2   ar
    48    43    37   ar
    49    15    10   ar
    50    32    27   ar
@<TRIPOS>MOLECULE
*****
 47 50 0 0 0
SMALL
GASTEIGER

@<TRIPOS>ATOM
      1 C          64.6505   87.0313   14.3371 C.3     1  UNL1        0.0503
      2 C          63.8206   86.9746   13.6275 C.ar    1  UNL1        0.0465
      3 C          63.1256   88.2894   13.4322 C.ar    1  UNL1        0.0703
      4 C          61.9625   88.3904   12.4905 C.ar    1  UNL1        0.2654
      5 O          61.2675   89.7053   12.2953 O.2     1  UNL1       -0.2668
      6 N          61.4943   87.1765   11.7440 N.ar    1  UNL1       -0.2470
      7 C          62.1892   85.8617   11.9393 C.ar    1  UNL1        0.3338
      8 O          61.9458   84.9107   11.4575 O.2     1  UNL1       -0.2462
      9 N          63.3524   85.7607   12.8810 N.ar    1  UNL1       -0.2806
     10 C          63.5938   89.5034   14.1787 C.ar    1  UNL1        0.0362
     11 C          63.4470   89.5697   15.6700 C.ar    1  UNL1        0.0026
     12 C          63.9152   90.7837   16.4165 C.ar    1  UNL1        0.0033
     13 C          64.5302   91.9313   15.6716 C.ar    1  UNL1        0.0392
     14 C          64.6770   91.8649   14.1802 C.ar    1  UNL1        0.1658
     15 C          64.2088   90.6510   13.4338 C.ar    1  UNL1        0.1739
     16 F          64.3556   90.5846   11.9425 F       1  UNL1       -0.2010
     17 O          65.2919   93.0125   13.4354 O.3     1  UNL1       -0.4732
     18 C          65.8187   92.8085   12.0457 C.3     1  UNL1        0.2055
     19 C          67.1034   92.0642   11.8324 C.3     1  UNL1        0.0477
     20 C          68.2548   92.2709   12.7713 C.3     1  UNL1        0.0097
     21 C          68.2174   91.6737   14.1468 C.3     1  UNL1        0.0418
     22 C          68.1846   92.5668   15.3515 C.2     1  UNL1        0.0503
     23 O          68.6077   92.0371   16.6896 O.co2   1  UNL1       -0.5492
     24 O          67.7288   93.9896   15.2181 O.co2   1  UNL1       -0.5492
     25 C          60.3311   87.2775   10.8023 C.3     1  UNL1        0.1339
     26 C          60.5663   87.5516    9.3465 C.3     1  UNL1        0.1033
     27 C          61.1916   86.5014    8.4770 C.ar    1  UNL1       -0.0059
     28 C          60.3664   85.7960    7.4418 C.ar    1  UNL1       -0.0029
     29 C          60.9916   84.7458    6.5723 C.ar    1  UNL1       -0.0003
     30 C          62.4420   84.4009    6.7380 C.ar    1  UNL1       -0.0000
     31 C          63.2671   85.1062    7.7732 C.ar    1  UNL1       -0.0003
     32 C          62.6419   86.1565    8.6427 C.ar    1  UNL1       -0.0029
     33 N          60.1764   88.8761    8.7601 N.3     1  UNL1       -0.2663
     34 C          60.3238   90.1285    9.5723 C.3     1  UNL1        0.0899
     35 C          59.7751   89.0604    7.7598 C.3     1  UNL1        0.0899
     36 C          64.0474   84.4458   13.0762 C.3     1  UNL1        0.1391
     37 C          63.2437   83.1901   13.2420 C.ar    1  UNL1        0.0319
     38 C          62.3904   83.0012   14.4612 C.ar    1  UNL1        0.1379
     39 F          62.2695   83.6990   15.2943 F       1  UNL1       -0.2044
     40 C          61.5868   81.7456   14.6270 C.ar    1  UNL1        0.0294
     41 C          61.6365   80.6788   13.5736 C.ar    1  UNL1        0.0022
     42 C          62.4898   80.8677   12.3545 C.ar    1  UNL1        0.0037
     43 C          63.2934   82.1233   12.1887 C.ar    1  UNL1        0.0714
     44 C          64.1467   82.3122   10.9696 C.3     1  UNL1        0.4184
     45 F          65.0000   82.5010    9.7505 F       1  UNL1       -0.1659
     46 F          62.9136   82.4862   10.1334 F       1  UNL1       -0.1659
     47 F          65.3798   82.1382   11.8057 F       1  UNL1       -0.1659
@<TRIPOS>UNITY_ATOM_ATTR
23 1
charge -1
@<TRIPOS>BOND
     1     1     2    1
     2     2     3   ar
     3     3    10    1
     4    10    11   ar
     5    11    12   ar
     6    12    13   ar
     7    13    14   ar
     8    14    17    1
     9    17    18    1
    10    18    19    1
    11    19    20    1
    12    20    21    1
    13    21    22    1
    14    22    23   ar
    15    22    24   ar
    16    14    15   ar
    17    15    16    1
    18     3     4   ar
    19     4     5    2
    20     4     6   ar
    21     6    25    1
    22    26    25    1
    23    26    27    1
    24    27    28   ar
    25    28    29   ar
    26    29    30   ar
    27    30    31   ar
    28    31    32   ar
    29    26    33    1
    30    33    34    1
    31    33    35    1
    32     6     7   ar
    33     7     8    2
    34     7     9   ar
    35     9    36    1
    36    36    37    1
    37    37    38   ar
    38    38    39    1
    39    38    40   ar
    40    40    41   ar
    41    41    42   ar
    42    42    43   ar
    43    43    44    1
    44    44    45    1
    45    44    46    1
    46    44    47    1
    47     9     2   ar
    48    43    37   ar
    49    15    10   ar
    50    32    27   ar
