@<TRIPOS>MOLECULE
*****
 33 36 0 0 0
SMALL
GASTEIGER

@<TRIPOS>ATOM
      1 C          62.8975   87.6623   12.0013 C.ar    1  UNL1        0.1646
      2 N          63.6842   87.6577   13.2786 N.ar    1  UNL1       -0.1496
      3 N          63.9827   86.3609   13.9708 N.ar    1  UNL1       -0.2218
      4 C          64.7293   86.0456   15.2330 C.ar    1  UNL1        0.1014
      5 C          64.7026   84.5586   15.4281 C.ar    1  UNL1        0.0326
      6 C          63.9394   83.9549   14.2866 C.ar    1  UNL1        0.0923
      7 C          63.4944   85.0688   13.3859 C.ar    1  UNL1        0.1487
      8 C          62.7078   85.0735   12.1087 C.ar    1  UNL1        0.2840
      9 O          62.2196   83.7814   11.5238 O.2     1  UNL1       -0.2649
     10 N          62.4094   86.3703   11.4165 N.ar    1  UNL1       -0.2587
     11 C          61.6227   86.3749   10.1393 C.ar    1  UNL1        0.0681
     12 C          62.2186   85.7982    8.8894 C.ar    1  UNL1        0.0176
     13 C          61.4320   85.8028    7.6122 C.ar    1  UNL1        0.0015
     14 C          60.0495   86.3841    7.5849 C.ar    1  UNL1        0.0001
     15 C          59.4536   86.9609    8.8348 C.ar    1  UNL1        0.0015
     16 C          60.2402   86.9562   10.1120 C.ar    1  UNL1        0.0176
     17 C          62.4287   88.9921    9.8191 C.3     1  UNL1        0.0295
     18 C          62.5991   88.9592   11.3090 C.3     1  UNL1        0.1301
     19 N          62.4711   90.2231   12.1067 N.pl3   1  UNL1       -0.3129
     20 H          61.5912   90.5022   12.4488 H       1  UNL1        0.1486
     21 C          63.6837   91.0616   12.3830 C.ar    1  UNL1        0.1429
     22 N          64.3580   91.7971   11.2630 N.ar    1  UNL1       -0.2084
     23 C          65.5706   92.6356   11.5394 C.ar    1  UNL1        0.2012
     24 N          66.1089   92.7386   12.9357 N.ar    1  UNL1       -0.2087
     25 C          65.4346   92.0031   14.0557 C.ar    1  UNL1        0.1396
     26 N          65.9729   92.1061   15.4520 N.pl3   1  UNL1       -0.3420
     27 C          64.2220   91.1646   13.7794 C.ar    1  UNL1        0.1308
     28 H          66.7688   92.6565   15.6333 H       1  UNL1        0.1437
     29 H          65.5303   91.6233   16.1870 H       1  UNL1        0.1437
     30 C          63.5477   90.4291   14.8992 C.1     1  UNL1        0.1061
     31 N          62.8734   89.6935   16.0192 N.1     1  UNL1       -0.1906
     32 C          63.6687   82.4938   14.0817 C.1     1  UNL1        0.1021
     33 N          63.3980   81.0328   13.8769 N.1     1  UNL1       -0.1908
@<TRIPOS>BOND
     1    18    17    1
     2    18    19    1
     3    19    21    1
     4    21    22   ar
     5    22    23   ar
     6    23    24   ar
     7    24    25   ar
     8    25    26    1
     9    25    27   ar
    10    27    30    1
    11    30    31    3
    12    18     1    1
    13     1     2   ar
    14     2     3   ar
    15     3     4   ar
    16     4     5   ar
    17     5     6   ar
    18     6    32    1
    19    32    33    3
    20     6     7   ar
    21     7     8   ar
    22     8     9    2
    23     8    10   ar
    24    10    11    1
    25    11    12   ar
    26    12    13   ar
    27    13    14   ar
    28    14    15   ar
    29    15    16   ar
    30    27    21   ar
    31    10     1   ar
    32    16    11   ar
    33     7     3   ar
    34    19    20    1
    35    26    28    1
    36    26    29    1
@<TRIPOS>MOLECULE
*****
 33 36 0 0 0
SMALL
GASTEIGER

@<TRIPOS>ATOM
      1 C          62.8807   87.5002   12.1149 C.ar    1  UNL1        0.1646
      2 N          63.6864   87.3862   13.3751 N.ar    1  UNL1       -0.1496
      3 N          63.9920   86.0349   13.9502 N.ar    1  UNL1       -0.2218
      4 C          64.7567   85.6127   15.1696 C.ar    1  UNL1        0.1014
      5 C          64.7292   84.1145   15.2382 C.ar    1  UNL1        0.0326
      6 C          63.9476   83.6108   14.0611 C.ar    1  UNL1        0.0923
      7 C          63.4919   84.7977   13.2651 C.ar    1  UNL1        0.1487
      8 C          62.6863   84.9118   12.0050 C.ar    1  UNL1        0.2840
      9 O          62.1862   83.6746   11.3199 O.2     1  UNL1       -0.2649
     10 N          62.3807   86.2630   11.4299 N.ar    1  UNL1       -0.2587
     11 C          61.5750   86.3770   10.1697 C.ar    1  UNL1        0.0681
     12 C          62.1054   85.8093    8.8866 C.ar    1  UNL1        0.0176
     13 C          61.2998   85.9233    7.6265 C.ar    1  UNL1        0.0015
     14 C          59.9639   86.6050    7.6494 C.ar    1  UNL1        0.0001
     15 C          59.4335   87.1726    8.9325 C.ar    1  UNL1        0.0015
     16 C          60.2392   87.0586   10.1927 C.ar    1  UNL1        0.0176
     17 C          62.7372   89.0945   10.0685 C.3     1  UNL1        0.0295
     18 C          62.5751   88.8515   11.5398 C.3     1  UNL1        0.1301
     19 N          62.1075   89.9597   12.4360 N.pl3   1  UNL1       -0.3129
     20 H          61.2196   90.3622   12.2988 H       1  UNL1        0.1486
     21 C          62.9926   90.4546   13.5412 C.ar    1  UNL1        0.1429
     22 N          62.7252   90.0416   14.9582 N.ar    1  UNL1       -0.2084
     23 C          63.6104   90.5366   16.0634 C.ar    1  UNL1        0.2012
     24 N          64.7630   91.4444   15.7516 N.ar    1  UNL1       -0.2087
     25 C          65.0305   91.8574   14.3345 C.ar    1  UNL1        0.1396
     26 N          66.1831   92.7653   14.0227 N.pl3   1  UNL1       -0.3420
     27 C          64.1453   91.3625   13.2293 C.ar    1  UNL1        0.1308
     28 H          66.7641   93.0901   14.7481 H       1  UNL1        0.1437
     29 H          66.3586   93.0363   13.0927 H       1  UNL1        0.1437
     30 C          64.4127   91.7754   11.8124 C.1     1  UNL1        0.1061
     31 N          64.6802   92.1884   10.3953 N.1     1  UNL1       -0.1906
     32 C          63.6703   82.1727   13.7371 C.1     1  UNL1        0.1021
     33 N          63.3930   80.7347   13.4130 N.1     1  UNL1       -0.1908
@<TRIPOS>BOND
     1    18    17    1
     2    18    19    1
     3    19    21    1
     4    21    22   ar
     5    22    23   ar
     6    23    24   ar
     7    24    25   ar
     8    25    26    1
     9    25    27   ar
    10    27    30    1
    11    30    31    3
    12    18     1    1
    13     1     2   ar
    14     2     3   ar
    15     3     4   ar
    16     4     5   ar
    17     5     6   ar
    18     6    32    1
    19    32    33    3
    20     6     7   ar
    21     7     8   ar
    22     8     9    2
    23     8    10   ar
    24    10    11    1
    25    11    12   ar
    26    12    13   ar
    27    13    14   ar
    28    14    15   ar
    29    15    16   ar
    30    27    21   ar
    31    10     1   ar
    32    16    11   ar
    33     7     3   ar
    34    19    20    1
    35    26    28    1
    36    26    29    1
@<TRIPOS>MOLECULE
*****
 33 36 0 0 0
SMALL
GASTEIGER

@<TRIPOS>ATOM
      1 C          63.4603   90.2912   12.4565 C.ar    1  UNL1        0.1646
      2 N          63.7705   91.4110   11.5078 N.ar    1  UNL1       -0.1496
      3 N          64.8671   92.3831   11.8280 N.ar    1  UNL1       -0.2218
      4 C          65.3965   93.5774   11.0907 C.ar    1  UNL1        0.1014
      5 C          66.5100   94.1678   11.9039 C.ar    1  UNL1        0.0326
      6 C          66.6688   93.3385   13.1437 C.ar    1  UNL1        0.0923
      7 C          65.6534   92.2355   13.0968 C.ar    1  UNL1        0.1487
      8 C          65.3432   91.1158   14.0454 C.ar    1  UNL1        0.2840
      9 O          66.1295   90.9682   15.3142 O.2     1  UNL1       -0.2649
     10 N          64.2466   90.1437   13.7253 N.ar    1  UNL1       -0.2587
     11 C          63.9364   89.0239   14.6740 C.ar    1  UNL1        0.0681
     12 C          63.2322   89.3100   15.9671 C.ar    1  UNL1        0.0176
     13 C          62.9220   88.1903   16.9159 C.ar    1  UNL1        0.0015
     14 C          63.3160   86.7846   16.5715 C.ar    1  UNL1        0.0001
     15 C          64.0202   86.4985   15.2783 C.ar    1  UNL1        0.0015
     16 C          64.3304   87.6182   14.3296 C.ar    1  UNL1        0.0176
     17 C          61.0450   89.4159   12.8448 C.3     1  UNL1        0.0295
     18 C          62.3637   89.3191   12.1364 C.3     1  UNL1        0.1301
     19 N          62.5857   88.2501   11.1078 N.pl3   1  UNL1       -0.3129
     20 H          63.3516   87.6372   11.1922 H       1  UNL1        0.1486
     21 C          61.6409   88.1149    9.9506 C.ar    1  UNL1        0.1429
     22 N          60.8182   89.2902    9.5128 N.ar    1  UNL1       -0.2084
     23 C          59.8734   89.1549    8.3557 C.ar    1  UNL1        0.2012
     24 N          59.7513   87.8443    7.6363 N.ar    1  UNL1       -0.2087
     25 C          60.5740   86.6690    8.0742 C.ar    1  UNL1        0.1396
     26 N          60.4519   85.3584    7.3548 N.pl3   1  UNL1       -0.3420
     27 C          61.5188   86.8042    9.2313 C.ar    1  UNL1        0.1308
     28 H          59.8318   85.2696    6.5953 H       1  UNL1        0.1437
     29 H          60.9919   84.5870    7.6422 H       1  UNL1        0.1437
     30 C          62.3415   85.6289    9.6691 C.1     1  UNL1        0.1061
     31 N          63.1642   84.4536   10.1070 N.1     1  UNL1       -0.1906
     32 C          67.6677   93.5714   14.2383 C.1     1  UNL1        0.1021
     33 N          68.6666   93.8043   15.3328 N.1     1  UNL1       -0.1908
@<TRIPOS>BOND
     1    18    17    1
     2    18    19    1
     3    19    21    1
     4    21    22   ar
     5    22    23   ar
     6    23    24   ar
     7    24    25   ar
     8    25    26    1
     9    25    27   ar
    10    27    30    1
    11    30    31    3
    12    18     1    1
    13     1     2   ar
    14     2     3   ar
    15     3     4   ar
    16     4     5   ar
    17     5     6   ar
    18     6    32    1
    19    32    33    3
    20     6     7   ar
    21     7     8   ar
    22     8     9    2
    23     8    10   ar
    24    10    11    1
    25    11    12   ar
    26    12    13   ar
    27    13    14   ar
    28    14    15   ar
    29    15    16   ar
    30    27    21   ar
    31    10     1   ar
    32    16    11   ar
    33     7     3   ar
    34    19    20    1
    35    26    28    1
    36    26    29    1
@<TRIPOS>MOLECULE
*****
 33 36 0 0 0
SMALL
GASTEIGER

@<TRIPOS>ATOM
      1 C          64.3675   89.5653   13.9321 C.ar    1  UNL1        0.1646
      2 N          65.5310   90.0585   14.7403 N.ar    1  UNL1       -0.1496
      3 N          66.1784   91.3682   14.4008 N.ar    1  UNL1       -0.2218
      4 C          67.3322   92.1059   15.0129 C.ar    1  UNL1        0.1014
      5 C          67.5293   93.3784   14.2435 C.ar    1  UNL1        0.0326
      6 C          66.4974   93.4271   13.1560 C.ar    1  UNL1        0.0923
      7 C          65.6625   92.1848   13.2532 C.ar    1  UNL1        0.1487
      8 C          64.4990   91.6916   12.4451 C.ar    1  UNL1        0.2840
      9 O          63.9831   92.5081   11.2974 O.2     1  UNL1       -0.2649
     10 N          63.8516   90.3818   12.7845 N.ar    1  UNL1       -0.2587
     11 C          62.6881   89.8886   11.9763 C.ar    1  UNL1        0.0681
     12 C          62.9121   89.3324   10.6013 C.ar    1  UNL1        0.0176
     13 C          61.7487   88.8393    9.7931 C.ar    1  UNL1        0.0015
     14 C          60.3613   88.9022   10.3598 C.ar    1  UNL1        0.0001
     15 C          60.1373   89.4583   11.7347 C.ar    1  UNL1        0.0015
     16 C          61.3008   89.9515   12.5430 C.ar    1  UNL1        0.0176
     17 C          63.2460   87.9934   15.6704 C.3     1  UNL1        0.0295
     18 C          63.7200   88.2554   14.2715 C.3     1  UNL1        0.1301
     19 N          63.5465   87.2077   13.2122 N.pl3   1  UNL1       -0.3129
     20 H          63.3677   87.4737   12.2814 H       1  UNL1        0.1486
     21 C          63.6455   85.7547   13.5711 C.ar    1  UNL1        0.1429
     22 N          64.3832   85.3363   14.8084 N.ar    1  UNL1       -0.2084
     23 C          64.4822   83.8833   15.1672 C.ar    1  UNL1        0.2012
     24 N          63.8434   82.8486   14.2889 N.ar    1  UNL1       -0.2087
     25 C          63.1057   83.2669   13.0517 C.ar    1  UNL1        0.1396
     26 N          62.4670   82.2322   12.1734 N.pl3   1  UNL1       -0.3420
     27 C          63.0067   84.7200   12.6927 C.ar    1  UNL1        0.1308
     28 H          62.5320   81.2786   12.4089 H       1  UNL1        0.1437
     29 H          61.9829   82.5068   11.3613 H       1  UNL1        0.1437
     30 C          62.2691   85.1383   11.4556 C.1     1  UNL1        0.1061
     31 N          61.5313   85.5567   10.2183 N.1     1  UNL1       -0.1906
     32 C          66.3298   94.5254   12.1481 C.1     1  UNL1        0.1021
     33 N          66.1622   95.6237   11.1403 N.1     1  UNL1       -0.1908
@<TRIPOS>BOND
     1    18    17    1
     2    18    19    1
     3    19    21    1
     4    21    22   ar
     5    22    23   ar
     6    23    24   ar
     7    24    25   ar
     8    25    26    1
     9    25    27   ar
    10    27    30    1
    11    30    31    3
    12    18     1    1
    13     1     2   ar
    14     2     3   ar
    15     3     4   ar
    16     4     5   ar
    17     5     6   ar
    18     6    32    1
    19    32    33    3
    20     6     7   ar
    21     7     8   ar
    22     8     9    2
    23     8    10   ar
    24    10    11    1
    25    11    12   ar
    26    12    13   ar
    27    13    14   ar
    28    14    15   ar
    29    15    16   ar
    30    27    21   ar
    31    10     1   ar
    32    16    11   ar
    33     7     3   ar
    34    19    20    1
    35    26    28    1
    36    26    29    1
@<TRIPOS>MOLECULE
*****
 33 36 0 0 0
SMALL
GASTEIGER

@<TRIPOS>ATOM
      1 C          63.3043   88.1115   12.9516 C.ar    1  UNL1        0.1646
      2 N          64.1129   87.4811   14.0465 N.ar    1  UNL1       -0.1496
      3 N          64.2319   85.9879   14.1264 N.ar    1  UNL1       -0.2218
      4 C          64.9543   85.0885   15.0850 C.ar    1  UNL1        0.1014
      5 C          64.7111   83.6699   14.6626 C.ar    1  UNL1        0.0326
      6 C          63.8384   83.6926   13.4428 C.ar    1  UNL1        0.0923
      7 C          63.5422   85.1252   13.1114 C.ar    1  UNL1        0.1487
      8 C          62.7336   85.7557   12.0166 C.ar    1  UNL1        0.2840
      9 O          62.0439   84.8930   11.0016 O.2     1  UNL1       -0.2649
     10 N          62.6146   87.2488   11.9367 N.ar    1  UNL1       -0.2587
     11 C          61.8059   87.8792   10.8418 C.ar    1  UNL1        0.0681
     12 C          62.4178   88.9365    9.9712 C.ar    1  UNL1        0.0176
     13 C          61.6092   89.5669    8.8764 C.ar    1  UNL1        0.0015
     14 C          60.1888   89.1401    8.6521 C.ar    1  UNL1        0.0001
     15 C          59.5770   88.0828    9.5227 C.ar    1  UNL1        0.0015
     16 C          60.3856   87.4524   10.6176 C.ar    1  UNL1        0.0176
     17 C          61.8394   90.2411   12.6883 C.3     1  UNL1        0.0295
     18 C          63.1853   89.6047   12.8717 C.3     1  UNL1        0.1301
     19 N          64.4122   90.4614   12.9751 N.pl3   1  UNL1       -0.3129
     20 H          65.0072   90.5651   12.1976 H       1  UNL1        0.1486
     21 C          64.7326   91.1601   14.2632 C.ar    1  UNL1        0.1429
     22 N          63.7666   91.1007   15.4092 N.ar    1  UNL1       -0.2084
     23 C          64.0871   91.7994   16.6972 C.ar    1  UNL1        0.2012
     24 N          65.3736   92.5575   16.8393 N.ar    1  UNL1       -0.2087
     25 C          66.3396   92.6169   15.6933 C.ar    1  UNL1        0.1396
     26 N          67.6261   93.3750   15.8355 N.pl3   1  UNL1       -0.3420
     27 C          66.0192   91.9182   14.4053 C.ar    1  UNL1        0.1308
     28 H          67.8364   93.8336   16.6809 H       1  UNL1        0.1437
     29 H          68.2601   93.4140   15.0833 H       1  UNL1        0.1437
     30 C          66.9852   91.9776   13.2594 C.1     1  UNL1        0.1061
     31 N          67.9513   92.0371   12.1134 N.1     1  UNL1       -0.1906
     32 C          63.3480   82.4933   12.6872 C.1     1  UNL1        0.1021
     33 N          62.8576   81.2939   11.9315 N.1     1  UNL1       -0.1908
@<TRIPOS>BOND
     1    18    17    1
     2    18    19    1
     3    19    21    1
     4    21    22   ar
     5    22    23   ar
     6    23    24   ar
     7    24    25   ar
     8    25    26    1
     9    25    27   ar
    10    27    30    1
    11    30    31    3
    12    18     1    1
    13     1     2   ar
    14     2     3   ar
    15     3     4   ar
    16     4     5   ar
    17     5     6   ar
    18     6    32    1
    19    32    33    3
    20     6     7   ar
    21     7     8   ar
    22     8     9    2
    23     8    10   ar
    24    10    11    1
    25    11    12   ar
    26    12    13   ar
    27    13    14   ar
    28    14    15   ar
    29    15    16   ar
    30    27    21   ar
    31    10     1   ar
    32    16    11   ar
    33     7     3   ar
    34    19    20    1
    35    26    28    1
    36    26    29    1
@<TRIPOS>MOLECULE
*****
 33 36 0 0 0
SMALL
GASTEIGER

@<TRIPOS>ATOM
      1 C          63.2235   88.7829   12.2813 C.ar    1  UNL1        0.1646
      2 N          63.3416   89.7597   11.1489 N.ar    1  UNL1       -0.1496
      3 N          64.1223   91.0275   11.3306 N.ar    1  UNL1       -0.2218
      4 C          64.4111   92.1701   10.4026 C.ar    1  UNL1        0.1014
      5 C          65.2521   93.1673   11.1430 C.ar    1  UNL1        0.0326
      6 C          65.4830   92.6412   12.5285 C.ar    1  UNL1        0.0923
      7 C          64.7848   91.3187   12.6445 C.ar    1  UNL1        0.1487
      8 C          64.6666   90.3419   13.7768 C.ar    1  UNL1        0.2840
      9 O          65.3291   90.6331   15.0907 O.2     1  UNL1       -0.2649
     10 N          63.8859   89.0741   13.5951 N.ar    1  UNL1       -0.2587
     11 C          63.7678   88.0973   14.7274 C.ar    1  UNL1        0.0681
     12 C          62.9865   88.4628   15.9546 C.ar    1  UNL1        0.0176
     13 C          62.8684   87.4861   17.0870 C.ar    1  UNL1        0.0015
     14 C          63.5315   86.1440   16.9921 C.ar    1  UNL1        0.0001
     15 C          64.3127   85.7785   15.7649 C.ar    1  UNL1        0.0015
     16 C          64.4309   86.7553   14.6326 C.ar    1  UNL1        0.0176
     17 C          63.1037   86.1880   12.3282 C.3     1  UNL1        0.0295
     18 C          62.4428   87.5150   12.0996 C.3     1  UNL1        0.1301
     19 N          61.0011   87.5741   11.6895 N.pl3   1  UNL1       -0.3129
     20 H          60.2995   87.6839   12.3713 H       1  UNL1        0.1486
     21 C          60.6286   87.4658   10.2405 C.ar    1  UNL1        0.1429
     22 N          60.7783   86.1569    9.5234 N.ar    1  UNL1       -0.2084
     23 C          60.4058   86.0487    8.0745 C.ar    1  UNL1        0.2012
     24 N          59.8835   87.2494    7.3426 N.ar    1  UNL1       -0.2087
     25 C          59.7338   88.5583    8.0598 C.ar    1  UNL1        0.1396
     26 N          59.2116   89.7590    7.3279 N.pl3   1  UNL1       -0.3420
     27 C          60.1064   88.6666    9.5087 C.ar    1  UNL1        0.1308
     28 H          58.9671   89.6880    6.3769 H       1  UNL1        0.1437
     29 H          59.1133   90.6181    7.7986 H       1  UNL1        0.1437
     30 C          59.9567   89.9754   10.2258 C.1     1  UNL1        0.1061
     31 N          59.8070   91.2844   10.9429 N.1     1  UNL1       -0.1906
     32 C          66.2735   93.3186   13.6085 C.1     1  UNL1        0.1021
     33 N          67.0639   93.9960   14.6884 N.1     1  UNL1       -0.1908
@<TRIPOS>BOND
     1    18    17    1
     2    18    19    1
     3    19    21    1
     4    21    22   ar
     5    22    23   ar
     6    23    24   ar
     7    24    25   ar
     8    25    26    1
     9    25    27   ar
    10    27    30    1
    11    30    31    3
    12    18     1    1
    13     1     2   ar
    14     2     3   ar
    15     3     4   ar
    16     4     5   ar
    17     5     6   ar
    18     6    32    1
    19    32    33    3
    20     6     7   ar
    21     7     8   ar
    22     8     9    2
    23     8    10   ar
    24    10    11    1
    25    11    12   ar
    26    12    13   ar
    27    13    14   ar
    28    14    15   ar
    29    15    16   ar
    30    27    21   ar
    31    10     1   ar
    32    16    11   ar
    33     7     3   ar
    34    19    20    1
    35    26    28    1
    36    26    29    1
@<TRIPOS>MOLECULE
*****
 33 36 0 0 0
SMALL
GASTEIGER

@<TRIPOS>ATOM
      1 C          71.9037   74.6217   13.0575 C.ar    1  UNL1        0.1646
      2 N          71.8657   75.6227   11.9409 N.ar    1  UNL1       -0.1496
      3 N          72.1902   77.0618   12.2126 N.ar    1  UNL1       -0.2218
      4 C          72.2356   78.2662   11.3197 C.ar    1  UNL1        0.1014
      5 C          72.6261   79.4487   12.1560 C.ar    1  UNL1        0.0326
      6 C          72.8220   78.9750   13.5657 C.ar    1  UNL1        0.0923
      7 C          72.5527   77.4998   13.6006 C.ar    1  UNL1        0.1487
      8 C          72.5906   76.4988   14.7171 C.ar    1  UNL1        0.2840
      9 O          72.9530   76.9368   16.1052 O.2     1  UNL1       -0.2649
     10 N          72.2661   75.0598   14.4455 N.ar    1  UNL1       -0.2587
     11 C          72.3040   74.0587   15.5620 C.ar    1  UNL1        0.0681
     12 C          73.5830   73.3454   15.8865 C.ar    1  UNL1        0.0176
     13 C          73.6210   72.3444   17.0030 C.ar    1  UNL1        0.0015
     14 C          72.3800   72.0568   17.7950 C.ar    1  UNL1        0.0001
     15 C          71.1010   72.7701   17.4705 C.ar    1  UNL1        0.0015
     16 C          71.0631   73.7711   16.3540 C.ar    1  UNL1        0.0176
     17 C          72.3809   72.4097   11.7809 C.3     1  UNL1        0.0295
     18 C          71.5791   73.1826   12.7859 C.3     1  UNL1        0.1301
     19 N          70.4529   72.5164   13.5191 N.pl3   1  UNL1       -0.3129
     20 H          70.1175   72.9015   14.3608 H       1  UNL1        0.1486
     21 C          69.8376   71.2634   12.9700 C.ar    1  UNL1        0.1429
     22 N          68.6306   71.3469   12.0834 N.ar    1  UNL1       -0.2084
     23 C          68.0155   70.0939   11.5343 C.ar    1  UNL1        0.2012
     24 N          68.6072   68.7575   11.8718 N.ar    1  UNL1       -0.2087
     25 C          69.8142   68.6741   12.7585 C.ar    1  UNL1        0.1396
     26 N          70.4060   67.3377   13.0960 N.pl3   1  UNL1       -0.3420
     27 C          70.4295   69.9270   13.3076 C.ar    1  UNL1        0.1308
     28 H          70.0022   66.5154   12.7356 H       1  UNL1        0.1437
     29 H          71.1982   67.2830   13.6779 H       1  UNL1        0.1437
     30 C          71.6364   69.8437   14.1942 C.1     1  UNL1        0.1061
     31 N          72.8435   69.7602   15.0809 N.1     1  UNL1       -0.1906
     32 C          73.2178   79.8270   14.7350 C.1     1  UNL1        0.1021
     33 N          73.6136   80.6790   15.9044 N.1     1  UNL1       -0.1908
@<TRIPOS>BOND
     1    18    17    1
     2    18    19    1
     3    19    21    1
     4    21    22   ar
     5    22    23   ar
     6    23    24   ar
     7    24    25   ar
     8    25    26    1
     9    25    27   ar
    10    27    30    1
    11    30    31    3
    12    18     1    1
    13     1     2   ar
    14     2     3   ar
    15     3     4   ar
    16     4     5   ar
    17     5     6   ar
    18     6    32    1
    19    32    33    3
    20     6     7   ar
    21     7     8   ar
    22     8     9    2
    23     8    10   ar
    24    10    11    1
    25    11    12   ar
    26    12    13   ar
    27    13    14   ar
    28    14    15   ar
    29    15    16   ar
    30    27    21   ar
    31    10     1   ar
    32    16    11   ar
    33     7     3   ar
    34    19    20    1
    35    26    28    1
    36    26    29    1
@<TRIPOS>MOLECULE
*****
 33 36 0 0 0
SMALL
GASTEIGER

@<TRIPOS>ATOM
      1 C          63.2873   88.5762   12.4280 C.ar    1  UNL1        0.1646
      2 N          64.1989   89.1268   13.4844 N.ar    1  UNL1       -0.1496
      3 N          64.8058   90.4881   13.3161 N.ar    1  UNL1       -0.2218
      4 C          65.7338   91.2874   14.1821 C.ar    1  UNL1        0.1014
      5 C          66.0026   92.5921   13.4927 C.ar    1  UNL1        0.0326
      6 C          65.2408   92.5993   12.2006 C.ar    1  UNL1        0.0923
      7 C          64.5011   91.2989   12.0914 C.ar    1  UNL1        0.1487
      8 C          63.5895   90.7484   11.0351 C.ar    1  UNL1        0.2840
      9 O          63.2849   91.5592    9.8104 O.2     1  UNL1       -0.2649
     10 N          62.9826   89.3870   11.2034 N.ar    1  UNL1       -0.2587
     11 C          62.0710   88.8365   10.1470 C.ar    1  UNL1        0.0681
     12 C          62.3777   87.5155    9.5059 C.ar    1  UNL1        0.0176
     13 C          61.4661   86.9649    8.4495 C.ar    1  UNL1        0.0015
     14 C          60.2479   87.7353    8.0342 C.ar    1  UNL1        0.0001
     15 C          59.9413   89.0563    8.6753 C.ar    1  UNL1        0.0015
     16 C          60.8529   89.6069    9.7317 C.ar    1  UNL1        0.0176
     17 C          61.2864   86.9497   12.1098 C.3     1  UNL1        0.0295
     18 C          62.6804   87.2148   12.5963 C.3     1  UNL1        0.1301
     19 N          63.4674   86.1185   13.2511 N.pl3   1  UNL1       -0.3129
     20 H          64.1783   86.3400   13.8951 H       1  UNL1        0.1486
     21 C          63.1711   84.6848   12.9248 C.ar    1  UNL1        0.1429
     22 N          63.3807   84.1743   11.5299 N.ar    1  UNL1       -0.2084
     23 C          63.0844   82.7405   11.2037 C.ar    1  UNL1        0.2012
     24 N          62.5786   81.8172   12.2722 N.ar    1  UNL1       -0.2087
     25 C          62.3690   82.3277   13.6670 C.ar    1  UNL1        0.1396
     26 N          61.8632   81.4044   14.7355 N.pl3   1  UNL1       -0.3420
     27 C          62.6652   83.7615   13.9933 C.ar    1  UNL1        0.1308
     28 H          61.6687   80.4634   14.5213 H       1  UNL1        0.1437
     29 H          61.7256   81.7395   15.6509 H       1  UNL1        0.1437
     30 C          62.4557   84.2720   15.3881 C.1     1  UNL1        0.1061
     31 N          62.2462   84.7825   16.7829 N.1     1  UNL1       -0.1906
     32 C          65.2220   93.7115   11.1943 C.1     1  UNL1        0.1021
     33 N          65.2032   94.8238   10.1881 N.1     1  UNL1       -0.1908
@<TRIPOS>BOND
     1    18    17    1
     2    18    19    1
     3    19    21    1
     4    21    22   ar
     5    22    23   ar
     6    23    24   ar
     7    24    25   ar
     8    25    26    1
     9    25    27   ar
    10    27    30    1
    11    30    31    3
    12    18     1    1
    13     1     2   ar
    14     2     3   ar
    15     3     4   ar
    16     4     5   ar
    17     5     6   ar
    18     6    32    1
    19    32    33    3
    20     6     7   ar
    21     7     8   ar
    22     8     9    2
    23     8    10   ar
    24    10    11    1
    25    11    12   ar
    26    12    13   ar
    27    13    14   ar
    28    14    15   ar
    29    15    16   ar
    30    27    21   ar
    31    10     1   ar
    32    16    11   ar
    33     7     3   ar
    34    19    20    1
    35    26    28    1
    36    26    29    1
@<TRIPOS>MOLECULE
*****
 33 36 0 0 0
SMALL
GASTEIGER

@<TRIPOS>ATOM
      1 C          63.4892   87.9947   13.3297 C.ar    1  UNL1        0.1646
      2 N          64.2696   87.2087   14.3413 N.ar    1  UNL1       -0.1496
      3 N          64.3290   85.7130   14.2453 N.ar    1  UNL1       -0.2218
      4 C          65.0129   84.6794   15.0903 C.ar    1  UNL1        0.1014
      5 C          64.7146   83.3309   14.5050 C.ar    1  UNL1        0.0326
      6 C          63.8464   83.5311   13.2983 C.ar    1  UNL1        0.0923
      7 C          63.6081   85.0033   13.1378 C.ar    1  UNL1        0.1487
      8 C          62.8277   85.7893   12.1263 C.ar    1  UNL1        0.2840
      9 O          62.1068   85.0796   11.0187 O.2     1  UNL1       -0.2649
     10 N          62.7683   87.2850   12.2222 N.ar    1  UNL1       -0.2587
     11 C          61.9879   88.0710   11.2106 C.ar    1  UNL1        0.0681
     12 C          62.6935   89.0342   10.3026 C.ar    1  UNL1        0.0176
     13 C          61.9132   89.8202    9.2910 C.ar    1  UNL1        0.0015
     14 C          60.4273   89.6430    9.1874 C.ar    1  UNL1        0.0001
     15 C          59.7217   88.6799   10.0954 C.ar    1  UNL1        0.0015
     16 C          60.5021   87.8939   11.1070 C.ar    1  UNL1        0.0176
     17 C          62.1208   90.2019   13.2504 C.3     1  UNL1        0.0295
     18 C          63.4297   89.4906   13.4256 C.3     1  UNL1        0.1301
     19 N          64.6792   90.2749   13.6969 N.pl3   1  UNL1       -0.3129
     20 H          65.2764   90.0103   14.4335 H       1  UNL1        0.1486
     21 C          65.0188   91.4625   12.8458 C.ar    1  UNL1        0.1429
     22 N          64.6471   91.4746   11.3926 N.ar    1  UNL1       -0.2084
     23 C          64.9867   92.6622   10.5416 C.ar    1  UNL1        0.2012
     24 N          65.6981   93.8376   11.1437 N.ar    1  UNL1       -0.2087
     25 C          66.0698   93.8254   12.5968 C.ar    1  UNL1        0.1396
     26 N          66.7811   95.0008   13.1989 N.pl3   1  UNL1       -0.3420
     27 C          65.7302   92.6379   13.4479 C.ar    1  UNL1        0.1308
     28 H          67.0040   95.7802   12.6403 H       1  UNL1        0.1437
     29 H          67.0250   94.9928   14.1527 H       1  UNL1        0.1437
     30 C          66.1018   92.6257   14.9010 C.1     1  UNL1        0.1061
     31 N          66.4736   92.6134   16.3542 N.1     1  UNL1       -0.1906
     32 C          63.3106   82.4489   12.4084 C.1     1  UNL1        0.1021
     33 N          62.7748   81.3668   11.5185 N.1     1  UNL1       -0.1908
@<TRIPOS>BOND
     1    18    17    1
     2    18    19    1
     3    19    21    1
     4    21    22   ar
     5    22    23   ar
     6    23    24   ar
     7    24    25   ar
     8    25    26    1
     9    25    27   ar
    10    27    30    1
    11    30    31    3
    12    18     1    1
    13     1     2   ar
    14     2     3   ar
    15     3     4   ar
    16     4     5   ar
    17     5     6   ar
    18     6    32    1
    19    32    33    3
    20     6     7   ar
    21     7     8   ar
    22     8     9    2
    23     8    10   ar
    24    10    11    1
    25    11    12   ar
    26    12    13   ar
    27    13    14   ar
    28    14    15   ar
    29    15    16   ar
    30    27    21   ar
    31    10     1   ar
    32    16    11   ar
    33     7     3   ar
    34    19    20    1
    35    26    28    1
    36    26    29    1
