@<TRIPOS>MOLECULE
*****
 39 44 0 0 0
SMALL
GASTEIGER

@<TRIPOS>ATOM
      1 C          65.4303   91.9284   15.0549 C.ar    1  UNL1        0.1205
      2 N          65.5922   92.6683   13.7601 N.ar    1  UNL1       -0.2313
      3 C          64.8058   91.9416   12.7096 C.ar    1  UNL1        0.0943
      4 C          64.5960   92.2090   11.2486 C.ar    1  UNL1       -0.0026
      5 C          65.2439   93.3979   10.6031 C.3     1  UNL1        0.0327
      6 C          63.7383   91.2874   10.4332 C.ar    1  UNL1        0.0003
      7 C          63.0904   90.0985   11.0787 C.ar    1  UNL1        0.0354
      8 C          63.3002   89.8311   12.5396 C.ar    1  UNL1        0.0217
      9 C          64.1579   90.7527   13.3551 C.ar    1  UNL1        0.0786
     10 N          64.5439   90.7446   14.8046 N.ar    1  UNL1       -0.3107
     11 C          62.2327   89.1769   10.2631 C.ar    1  UNL1        0.1439
     12 N          62.6876   87.9191    9.5843 N.ar    1  UNL1       -0.2268
     13 C          61.5055   87.3162    8.8849 C.ar    1  UNL1        0.0987
     14 C          61.3555   86.0755    8.0554 C.ar    1  UNL1        0.0206
     15 C          60.0198   85.7201    7.4724 C.ar    1  UNL1        0.0016
     16 C          58.8343   86.6053    7.7190 C.ar    1  UNL1        0.0016
     17 C          58.9844   87.8460    8.5485 C.ar    1  UNL1        0.0188
     18 C          60.3199   88.2015    9.1315 C.ar    1  UNL1        0.0789
     19 N          60.7694   89.3515    9.9833 N.ar    1  UNL1       -0.3094
     20 C          59.9069   90.4781   10.4698 C.3     1  UNL1        0.1319
     21 C          66.0467   92.3061   16.3692 C.3     1  UNL1        0.0640
     22 C          68.5963   92.2808   15.8703 C.3     1  UNL1        0.0005
     23 C          67.3838   92.9851   16.4030 C.3     1  UNL1        0.0079
     24 C          64.1182   89.7305   15.8246 C.3     1  UNL1        0.1339
     25 C          63.9213   88.2990   15.4223 C.ar    1  UNL1        0.0004
     26 C          63.1970   87.3558   16.3366 C.ar    1  UNL1       -0.0024
     27 C          63.0000   85.9242   15.9343 C.ar    1  UNL1       -0.0003
     28 C          63.5275   85.4358   14.6178 C.ar    1  UNL1        0.0000
     29 C          64.2518   86.3790   13.7036 C.ar    1  UNL1       -0.0003
     30 C          64.4487   87.8105   14.1058 C.ar    1  UNL1       -0.0024
     31 C          63.3306   84.0042   14.2155 C.ar    1  UNL1        0.0011
     32 C          63.6356   82.9033   15.1877 C.ar    1  UNL1        0.0000
     33 C          63.4387   81.4717   14.7855 C.ar    1  UNL1        0.0000
     34 C          62.9368   81.1411   13.4111 C.ar    1  UNL1        0.0000
     35 C          62.6319   82.2420   12.4390 C.ar    1  UNL1        0.0011
     36 C          62.8288   83.6736   12.8412 C.ar    1  UNL1        0.0140
     37 C          62.5239   84.7745   11.8692 C.2     1  UNL1        0.0729
     38 O          63.2172   84.8146   10.5396 O.co2   1  UNL1       -0.5446
     39 O          61.5256   85.8354   12.2267 O.co2   1  UNL1       -0.5446
@<TRIPOS>UNITY_ATOM_ATTR
38 1
charge -1
@<TRIPOS>BOND
     1    22    23    1
     2    23    21    1
     3    21     1    1
     4     1     2   ar
     5     2     3   ar
     6     3     4   ar
     7     4     5    1
     8     4     6   ar
     9     6     7   ar
    10     7    11    1
    11    11    12   ar
    12    12    13   ar
    13    13    14   ar
    14    14    15   ar
    15    15    16   ar
    16    16    17   ar
    17    17    18   ar
    18    18    19   ar
    19    19    20    1
    20     7     8   ar
    21     8     9   ar
    22     9    10   ar
    23    10    24    1
    24    24    25    1
    25    25    26   ar
    26    26    27   ar
    27    27    28   ar
    28    28    31    1
    29    31    32   ar
    30    32    33   ar
    31    33    34   ar
    32    34    35   ar
    33    35    36   ar
    34    36    37    1
    35    37    38   ar
    36    37    39   ar
    37    28    29   ar
    38    29    30   ar
    39    10     1   ar
    40    30    25   ar
    41     9     3   ar
    42    36    31   ar
    43    19    11   ar
    44    18    13   ar
@<TRIPOS>MOLECULE
*****
 39 44 0 0 0
SMALL
GASTEIGER

@<TRIPOS>ATOM
      1 C          59.4975   88.9418    7.0920 C.ar    1  UNL1        0.1205
      2 N          59.7907   87.5988    6.4916 N.ar    1  UNL1       -0.2313
      3 C          60.4646   86.7607    7.5373 C.ar    1  UNL1        0.0943
      4 C          60.9819   85.3529    7.5153 C.ar    1  UNL1       -0.0026
      5 C          60.8586   84.5279    6.2687 C.3     1  UNL1        0.0327
      6 C          61.6224   84.7701    8.7401 C.ar    1  UNL1        0.0003
      7 C          61.7457   85.5951    9.9867 C.ar    1  UNL1        0.0354
      8 C          61.2285   87.0029   10.0087 C.ar    1  UNL1        0.0217
      9 C          60.5879   87.5857    8.7840 C.ar    1  UNL1        0.0786
     10 N          59.9902   88.9337    8.5087 N.ar    1  UNL1       -0.3107
     11 C          62.3864   85.0123   11.2115 C.ar    1  UNL1        0.1439
     12 N          62.1776   85.4777   12.6221 N.ar    1  UNL1       -0.2268
     13 C          63.0104   84.6148   13.5230 C.ar    1  UNL1        0.0987
     14 C          63.2034   84.6094   15.0105 C.ar    1  UNL1        0.0206
     15 C          64.1200   83.6052   15.6442 C.ar    1  UNL1        0.0016
     16 C          64.8435   82.6064   14.7905 C.ar    1  UNL1        0.0016
     17 C          64.6505   82.6118   13.3029 C.ar    1  UNL1        0.0188
     18 C          63.7339   83.6159   12.6692 C.ar    1  UNL1        0.0789
     19 N          63.3482   83.8616   11.2406 N.ar    1  UNL1       -0.3094
     20 C          63.8384   83.0919   10.0502 C.3     1  UNL1        0.1319
     21 C          58.8290   90.0911    6.3975 C.3     1  UNL1        0.0640
     22 C          58.8713   91.9655    4.5990 C.3     1  UNL1        0.0005
     23 C          59.5340   90.8071    5.2839 C.3     1  UNL1        0.0079
     24 C          59.9009   90.0734    9.4798 C.3     1  UNL1        0.1339
     25 C          61.0756   90.4124   10.3486 C.ar    1  UNL1        0.0004
     26 C          62.3562   90.8860    9.7272 C.ar    1  UNL1       -0.0024
     27 C          63.5310   91.2250   10.5960 C.ar    1  UNL1       -0.0003
     28 C          63.4254   91.0903   12.0863 C.ar    1  UNL1        0.0000
     29 C          62.1449   90.6166   12.7076 C.ar    1  UNL1       -0.0003
     30 C          60.9701   90.2777   11.8388 C.ar    1  UNL1       -0.0024
     31 C          64.6002   91.4292   12.9551 C.ar    1  UNL1        0.0011
     32 C          65.5038   92.5677   12.5840 C.ar    1  UNL1        0.0000
     33 C          66.6786   92.9067   13.4528 C.ar    1  UNL1        0.0000
     34 C          66.9499   92.1072   14.6926 C.ar    1  UNL1        0.0000
     35 C          66.0465   90.9687   15.0637 C.ar    1  UNL1        0.0011
     36 C          64.8716   90.6298   14.1949 C.ar    1  UNL1        0.0140
     37 C          63.9681   89.4914   14.5659 C.2     1  UNL1        0.0729
     38 O          62.9409   89.6698   15.6443 O.co2   1  UNL1       -0.5446
     39 O          64.0919   88.1745   13.8584 O.co2   1  UNL1       -0.5446
@<TRIPOS>UNITY_ATOM_ATTR
38 1
charge -1
@<TRIPOS>BOND
     1    22    23    1
     2    23    21    1
     3    21     1    1
     4     1     2   ar
     5     2     3   ar
     6     3     4   ar
     7     4     5    1
     8     4     6   ar
     9     6     7   ar
    10     7    11    1
    11    11    12   ar
    12    12    13   ar
    13    13    14   ar
    14    14    15   ar
    15    15    16   ar
    16    16    17   ar
    17    17    18   ar
    18    18    19   ar
    19    19    20    1
    20     7     8   ar
    21     8     9   ar
    22     9    10   ar
    23    10    24    1
    24    24    25    1
    25    25    26   ar
    26    26    27   ar
    27    27    28   ar
    28    28    31    1
    29    31    32   ar
    30    32    33   ar
    31    33    34   ar
    32    34    35   ar
    33    35    36   ar
    34    36    37    1
    35    37    38   ar
    36    37    39   ar
    37    28    29   ar
    38    29    30   ar
    39    10     1   ar
    40    30    25   ar
    41     9     3   ar
    42    36    31   ar
    43    19    11   ar
    44    18    13   ar
@<TRIPOS>MOLECULE
*****
 39 44 0 0 0
SMALL
GASTEIGER

@<TRIPOS>ATOM
      1 C          63.5869   89.9368   15.6663 C.ar    1  UNL1        0.1205
      2 N          64.6353   90.8151   16.2823 N.ar    1  UNL1       -0.2313
      3 C          65.1941   91.6959   15.2044 C.ar    1  UNL1        0.0943
      4 C          66.2523   92.7587   15.2247 C.ar    1  UNL1       -0.0026
      5 C          66.9554   93.0926   16.5069 C.3     1  UNL1        0.0327
      6 C          66.6073   93.4878   13.9628 C.ar    1  UNL1        0.0003
      7 C          65.9042   93.1539   12.6806 C.ar    1  UNL1        0.0354
      8 C          64.8460   92.0910   12.6602 C.ar    1  UNL1        0.0217
      9 C          64.4910   91.3620   13.9221 C.ar    1  UNL1        0.0786
     10 N          63.4977   90.2748   14.2077 N.ar    1  UNL1       -0.3107
     11 C          66.2593   93.8829   11.4186 C.ar    1  UNL1        0.1439
     12 N          65.8089   95.2630   11.0411 N.ar    1  UNL1       -0.2268
     13 C          66.3984   95.5929    9.7019 C.ar    1  UNL1        0.0987
     14 C          66.2986   96.8124    8.8342 C.ar    1  UNL1        0.0206
     15 C          67.0135   96.8556    7.5161 C.ar    1  UNL1        0.0016
     16 C          67.8282   95.6794    7.0659 C.ar    1  UNL1        0.0016
     17 C          67.9281   94.4599    7.9336 C.ar    1  UNL1        0.0188
     18 C          67.2132   94.4167    9.2516 C.ar    1  UNL1        0.0789
     19 N          67.1272   93.3599   10.3126 N.ar    1  UNL1       -0.3094
     20 C          67.7923   92.0160   10.2743 C.3     1  UNL1        0.1319
     21 C          62.7709   88.9022   16.3832 C.3     1  UNL1        0.0640
     22 C          62.7993   86.6410   17.6622 C.3     1  UNL1        0.0005
     23 C          63.3026   87.5093   16.5475 C.3     1  UNL1        0.0079
     24 C          62.5768   89.6376   13.2097 C.3     1  UNL1        0.1339
     25 C          62.7088   88.1775   12.8928 C.ar    1  UNL1        0.0004
     26 C          61.7059   87.5103   11.9989 C.ar    1  UNL1       -0.0024
     27 C          61.8378   86.0501   11.6820 C.ar    1  UNL1       -0.0003
     28 C          62.9728   85.2570   12.2591 C.ar    1  UNL1        0.0000
     29 C          63.9758   85.9242   13.1529 C.ar    1  UNL1       -0.0003
     30 C          63.8438   87.3844   13.4698 C.ar    1  UNL1       -0.0024
     31 C          63.1048   83.7969   11.9422 C.ar    1  UNL1        0.0011
     32 C          63.2945   83.3516   10.5223 C.ar    1  UNL1        0.0000
     33 C          63.4264   81.8915   10.2054 C.ar    1  UNL1        0.0000
     34 C          63.3688   80.8765   11.3084 C.ar    1  UNL1        0.0000
     35 C          63.1791   81.3216   12.7282 C.ar    1  UNL1        0.0011
     36 C          63.0471   82.7818   13.0451 C.ar    1  UNL1        0.0140
     37 C          62.8575   83.2271   14.4649 C.2     1  UNL1        0.0729
     38 O          63.9519   83.0177   15.4691 O.co2   1  UNL1       -0.5446
     39 O          61.5734   83.8817   14.8803 O.co2   1  UNL1       -0.5446
@<TRIPOS>UNITY_ATOM_ATTR
38 1
charge -1
@<TRIPOS>BOND
     1    22    23    1
     2    23    21    1
     3    21     1    1
     4     1     2   ar
     5     2     3   ar
     6     3     4   ar
     7     4     5    1
     8     4     6   ar
     9     6     7   ar
    10     7    11    1
    11    11    12   ar
    12    12    13   ar
    13    13    14   ar
    14    14    15   ar
    15    15    16   ar
    16    16    17   ar
    17    17    18   ar
    18    18    19   ar
    19    19    20    1
    20     7     8   ar
    21     8     9   ar
    22     9    10   ar
    23    10    24    1
    24    24    25    1
    25    25    26   ar
    26    26    27   ar
    27    27    28   ar
    28    28    31    1
    29    31    32   ar
    30    32    33   ar
    31    33    34   ar
    32    34    35   ar
    33    35    36   ar
    34    36    37    1
    35    37    38   ar
    36    37    39   ar
    37    28    29   ar
    38    29    30   ar
    39    10     1   ar
    40    30    25   ar
    41     9     3   ar
    42    36    31   ar
    43    19    11   ar
    44    18    13   ar
@<TRIPOS>MOLECULE
*****
 39 44 0 0 0
SMALL
GASTEIGER

@<TRIPOS>ATOM
      1 C          59.7062   89.3057    7.4863 C.ar    1  UNL1        0.1205
      2 N          59.8915   87.9691    6.8312 N.ar    1  UNL1       -0.2313
      3 C          60.5307   87.0487    7.8283 C.ar    1  UNL1        0.0943
      4 C          60.9489   85.6107    7.7428 C.ar    1  UNL1       -0.0026
      5 C          60.7392   84.8430    6.4713 C.3     1  UNL1        0.0327
      6 C          61.5767   84.9405    8.9287 C.ar    1  UNL1        0.0003
      7 C          61.7864   85.7082   10.2002 C.ar    1  UNL1        0.0354
      8 C          61.3682   87.1462   10.2857 C.ar    1  UNL1        0.0217
      9 C          60.7404   87.8164    9.0998 C.ar    1  UNL1        0.0786
     10 N          60.2308   89.2113    8.8884 N.ar    1  UNL1       -0.3107
     11 C          62.4142   85.0379   11.3862 C.ar    1  UNL1        0.1439
     12 N          62.2163   85.4212   12.8228 N.ar    1  UNL1       -0.2268
     13 C          63.0300   84.4868   13.6682 C.ar    1  UNL1        0.0987
     14 C          63.2234   84.3867   15.1524 C.ar    1  UNL1        0.0206
     15 C          64.1176   83.3257   15.7223 C.ar    1  UNL1        0.0016
     16 C          64.8183   82.3649   14.8082 C.ar    1  UNL1        0.0016
     17 C          64.6250   82.4650   13.3241 C.ar    1  UNL1        0.0188
     18 C          63.7309   83.5259   12.7541 C.ar    1  UNL1        0.0789
     19 N          63.3503   83.8665   11.3438 N.ar    1  UNL1       -0.3094
     20 C          63.8227   83.1598   10.1079 C.3     1  UNL1        0.1319
     21 C          59.1022   90.5229    6.8510 C.3     1  UNL1        0.0640
     22 C          57.9438   91.6191    4.8001 C.3     1  UNL1        0.0005
     23 C          58.7886   90.5259    5.3842 C.3     1  UNL1        0.0079
     24 C          60.2436   90.3175    9.9013 C.3     1  UNL1        0.1339
     25 C          61.4921   90.6063   10.6808 C.ar    1  UNL1        0.0004
     26 C          61.5532   90.2858   12.1450 C.ar    1  UNL1       -0.0024
     27 C          62.8017   90.5746   12.9246 C.ar    1  UNL1       -0.0003
     28 C          63.9892   91.1840   12.2400 C.ar    1  UNL1        0.0000
     29 C          63.9281   91.5045   10.7760 C.ar    1  UNL1       -0.0003
     30 C          62.6796   91.2157    9.9964 C.ar    1  UNL1       -0.0024
     31 C          65.2377   91.4727   13.0196 C.ar    1  UNL1        0.0011
     32 C          65.4183   90.8893   14.3897 C.ar    1  UNL1        0.0000
     33 C          66.6668   91.1781   15.1693 C.ar    1  UNL1        0.0000
     34 C          67.7348   92.0503   14.5788 C.ar    1  UNL1        0.0000
     35 C          67.5543   92.6337   13.2088 C.ar    1  UNL1        0.0011
     36 C          66.3057   92.3450   12.4292 C.ar    1  UNL1        0.0140
     37 C          66.1252   92.9283   11.0592 C.2     1  UNL1        0.0729
     38 O          66.7827   92.2819    9.8760 O.co2   1  UNL1       -0.5446
     39 O          65.2870   94.1582   10.8723 O.co2   1  UNL1       -0.5446
@<TRIPOS>UNITY_ATOM_ATTR
38 1
charge -1
@<TRIPOS>BOND
     1    22    23    1
     2    23    21    1
     3    21     1    1
     4     1     2   ar
     5     2     3   ar
     6     3     4   ar
     7     4     5    1
     8     4     6   ar
     9     6     7   ar
    10     7    11    1
    11    11    12   ar
    12    12    13   ar
    13    13    14   ar
    14    14    15   ar
    15    15    16   ar
    16    16    17   ar
    17    17    18   ar
    18    18    19   ar
    19    19    20    1
    20     7     8   ar
    21     8     9   ar
    22     9    10   ar
    23    10    24    1
    24    24    25    1
    25    25    26   ar
    26    26    27   ar
    27    27    28   ar
    28    28    31    1
    29    31    32   ar
    30    32    33   ar
    31    33    34   ar
    32    34    35   ar
    33    35    36   ar
    34    36    37    1
    35    37    38   ar
    36    37    39   ar
    37    28    29   ar
    38    29    30   ar
    39    10     1   ar
    40    30    25   ar
    41     9     3   ar
    42    36    31   ar
    43    19    11   ar
    44    18    13   ar
