@<TRIPOS>MOLECULE
*****
 28 30 0 0 0
SMALL
GASTEIGER

@<TRIPOS>ATOM
      1 N          62.2940   88.5588   12.2019 N.pl3   1  UNL1       -0.3200
      2 H          62.5504   87.7699   12.7323 H       1  UNL1        0.1476
      3 C          63.1112   89.8141   12.2819 C.2     1  UNL1        0.1048
      4 C          63.9335   90.4785   13.3461 C.2     1  UNL1        0.1077
      5 C          64.2669   91.5894   12.3950 C.2     1  UNL1        0.2500
      6 O          65.0841   92.8447   12.4749 O.2     1  UNL1       -0.2817
      7 C          63.4447   90.9251   11.3307 C.2     1  UNL1        0.2498
      8 O          63.0991   91.2408    9.9056 O.2     1  UNL1       -0.2817
      9 N          64.2791   90.1627   14.7711 N.pl3   1  UNL1       -0.3088
     10 H          64.7185   90.8413   15.3331 H       1  UNL1        0.1523
     11 C          63.9552   88.8131   15.3401 C.ar    1  UNL1        0.0515
     12 C          64.4435   87.5725   14.6527 C.ar    1  UNL1        0.0353
     13 C          64.1196   86.2230   15.2217 C.ar    1  UNL1        0.1002
     14 N          63.3074   86.1140   16.4780 N.ar    1  UNL1       -0.2422
     15 C          62.8190   87.3545   17.1654 C.ar    1  UNL1        0.1002
     16 C          63.1429   88.7041   16.5964 C.ar    1  UNL1        0.0353
     17 C          61.0863   88.5054   11.3139 C.3     1  UNL1        0.1694
     18 C          61.0766   87.6048   10.1144 C.ar    1  UNL1        0.0042
     19 C          62.2892   86.7876    9.7802 C.ar    1  UNL1       -0.0022
     20 C          62.2795   85.8871    8.5807 C.ar    1  UNL1       -0.0003
     21 C          61.0572   85.8038    7.7153 C.ar    1  UNL1       -0.0000
     22 C          59.8445   86.6210    8.0494 C.ar    1  UNL1       -0.0003
     23 C          59.8543   87.5215    9.2490 C.ar    1  UNL1       -0.0022
     24 N          58.8700   88.8754   12.6183 N.am    1  UNL1       -0.3272
     25 C          59.8882   89.3525   11.6255 C.2     1  UNL1        0.2415
     26 O          59.7084   90.6768   10.9444 O.2     1  UNL1       -0.2732
     27 H          58.0837   89.4313   12.8228 H       1  UNL1        0.1450
     28 H          58.9880   88.0062   13.0653 H       1  UNL1        0.1450
@<TRIPOS>BOND
     1    24    25   am
     2    25    26    2
     3    25    17    1
     4    17     1    1
     5     1     3    1
     6     3     4    2
     7     4     9    1
     8     9    11    1
     9    11    12   ar
    10    12    13   ar
    11    13    14   ar
    12    14    15   ar
    13    15    16   ar
    14     4     5    1
    15     5     6    2
    16     5     7    1
    17     7     8    2
    18    17    18    1
    19    18    19   ar
    20    19    20   ar
    21    20    21   ar
    22    21    22   ar
    23    22    23   ar
    24     7     3    1
    25    23    18   ar
    26    16    11   ar
    27    24    27    1
    28    24    28    1
    29     1     2    1
    30     9    10    1
@<TRIPOS>MOLECULE
*****
 28 30 0 0 0
SMALL
GASTEIGER

@<TRIPOS>ATOM
      1 N          64.6786   91.9439   12.4724 N.pl3   1  UNL1       -0.3200
      2 H          64.0517   92.2080   11.7607 H       1  UNL1        0.1476
      3 C          64.2385   90.9906   13.5438 C.2     1  UNL1        0.1048
      4 C          63.6979   89.5915   13.5618 C.2     1  UNL1        0.1077
      5 C          63.6161   89.6424   15.0587 C.2     1  UNL1        0.2500
      6 O          63.1760   88.6892   16.1300 O.2     1  UNL1       -0.2817
      7 C          64.1566   91.0415   15.0407 C.2     1  UNL1        0.2498
      8 O          64.4811   92.0669   16.0864 O.2     1  UNL1       -0.2817
      9 N          63.3735   88.5662   12.5162 N.pl3   1  UNL1       -0.3088
     10 H          63.8747   87.7194   12.4849 H       1  UNL1        0.1523
     11 C          62.2854   88.8310   11.5181 C.ar    1  UNL1        0.0515
     12 C          61.3439   89.9806   11.7225 C.ar    1  UNL1        0.0353
     13 C          60.2559   90.2454   10.7244 C.ar    1  UNL1        0.1002
     14 N          60.1094   89.3606    9.5221 N.ar    1  UNL1       -0.2422
     15 C          61.0510   88.2110    9.3178 C.ar    1  UNL1        0.1002
     16 C          62.1390   87.9462   10.3158 C.ar    1  UNL1        0.0353
     17 C          66.0737   92.4947   12.4856 C.3     1  UNL1        0.1694
     18 C          66.7326   92.8988   11.2002 C.ar    1  UNL1        0.0042
     19 C          66.3303   94.1735   10.5195 C.ar    1  UNL1       -0.0022
     20 C          66.9893   94.5777    9.2341 C.ar    1  UNL1       -0.0003
     21 C          68.0506   93.7071    8.6292 C.ar    1  UNL1       -0.0000
     22 C          68.4529   92.4324    9.3098 C.ar    1  UNL1       -0.0003
     23 C          67.7939   92.0282   10.5953 C.ar    1  UNL1       -0.0022
     24 N          66.5885   93.8540   14.6391 N.am    1  UNL1       -0.3272
     25 C          66.8099   92.6414   13.7843 C.2     1  UNL1        0.2415
     26 O          67.7675   91.5755   14.2282 O.2     1  UNL1       -0.2732
     27 H          67.0717   93.9502   15.4915 H       1  UNL1        0.1450
     28 H          65.9600   94.5535   14.3478 H       1  UNL1        0.1450
@<TRIPOS>BOND
     1    24    25   am
     2    25    26    2
     3    25    17    1
     4    17     1    1
     5     1     3    1
     6     3     4    2
     7     4     9    1
     8     9    11    1
     9    11    12   ar
    10    12    13   ar
    11    13    14   ar
    12    14    15   ar
    13    15    16   ar
    14     4     5    1
    15     5     6    2
    16     5     7    1
    17     7     8    2
    18    17    18    1
    19    18    19   ar
    20    19    20   ar
    21    20    21   ar
    22    21    22   ar
    23    22    23   ar
    24     7     3    1
    25    23    18   ar
    26    16    11   ar
    27    24    27    1
    28    24    28    1
    29     1     2    1
    30     9    10    1
@<TRIPOS>MOLECULE
*****
 28 30 0 0 0
SMALL
GASTEIGER

@<TRIPOS>ATOM
      1 N          64.5784   83.9965   12.9158 N.pl3   1  UNL1       -0.3200
      2 H          65.5531   84.0773   12.8030 H       1  UNL1        0.1476
      3 C          63.9293   84.4611   14.1859 C.2     1  UNL1        0.1048
      4 C          64.0059   85.7031   15.0234 C.2     1  UNL1        0.1077
      5 C          63.0115   85.1181   15.9819 C.2     1  UNL1        0.2500
      6 O          62.3624   85.5826   17.2519 O.2     1  UNL1       -0.2817
      7 C          62.9349   83.8760   15.1444 C.2     1  UNL1        0.2498
      8 O          62.1776   82.5840   15.2300 O.2     1  UNL1       -0.2817
      9 N          64.7631   86.9951   14.9378 N.pl3   1  UNL1       -0.3088
     10 H          65.6308   87.0882   15.3936 H       1  UNL1        0.1523
     11 C          64.1984   88.1452   14.1578 C.ar    1  UNL1        0.0515
     12 C          64.3249   89.5435   14.6857 C.ar    1  UNL1        0.0353
     13 C          63.7601   90.6936   13.9057 C.ar    1  UNL1        0.1002
     14 N          63.0690   90.4453   12.5978 N.ar    1  UNL1       -0.2422
     15 C          62.9425   89.0470   12.0698 C.ar    1  UNL1        0.1002
     16 C          63.5072   87.8970   12.8499 C.ar    1  UNL1        0.0353
     17 C          63.7425   83.4089   11.8177 C.3     1  UNL1        0.1694
     18 C          63.1185   84.3046   10.7889 C.ar    1  UNL1        0.0042
     19 C          61.9699   85.1929   11.1654 C.ar    1  UNL1       -0.0022
     20 C          61.3460   86.0885   10.1366 C.ar    1  UNL1       -0.0003
     21 C          61.8706   86.0959    8.7313 C.ar    1  UNL1       -0.0000
     22 C          63.0192   85.2077    8.3549 C.ar    1  UNL1       -0.0003
     23 C          63.6432   84.3120    9.3837 C.ar    1  UNL1       -0.0022
     24 N          63.6331   81.0943   12.9928 N.am    1  UNL1       -0.3272
     25 C          63.5304   81.9255   11.7484 C.2     1  UNL1        0.2415
     26 O          63.2158   81.2735   10.4348 O.2     1  UNL1       -0.2732
     27 H          63.4939   80.1208   12.9474 H       1  UNL1        0.1450
     28 H          63.8396   81.5223   13.8550 H       1  UNL1        0.1450
@<TRIPOS>BOND
     1    24    25   am
     2    25    26    2
     3    25    17    1
     4    17     1    1
     5     1     3    1
     6     3     4    2
     7     4     9    1
     8     9    11    1
     9    11    12   ar
    10    12    13   ar
    11    13    14   ar
    12    14    15   ar
    13    15    16   ar
    14     4     5    1
    15     5     6    2
    16     5     7    1
    17     7     8    2
    18    17    18    1
    19    18    19   ar
    20    19    20   ar
    21    20    21   ar
    22    21    22   ar
    23    22    23   ar
    24     7     3    1
    25    23    18   ar
    26    16    11   ar
    27    24    27    1
    28    24    28    1
    29     1     2    1
    30     9    10    1
@<TRIPOS>MOLECULE
*****
 28 30 0 0 0
SMALL
GASTEIGER

@<TRIPOS>ATOM
      1 N          62.1185   90.7410   10.1153 N.pl3   1  UNL1       -0.3200
      2 H          62.2017   91.2066    9.2518 H       1  UNL1        0.1476
      3 C          63.1258   90.9858   11.1995 C.2     1  UNL1        0.1048
      4 C          64.1895   92.0142   11.4465 C.2     1  UNL1        0.1077
      5 C          64.5504   91.3320   12.7328 C.2     1  UNL1        0.2500
      6 O          65.5576   91.5768   13.8170 O.2     1  UNL1       -0.2817
      7 C          63.4867   90.3036   12.4858 C.2     1  UNL1        0.2498
      8 O          62.9896   89.0940   13.2206 O.2     1  UNL1       -0.2817
      9 N          64.6866   93.2237   10.7117 N.pl3   1  UNL1       -0.3088
     10 H          64.0692   93.9622   10.5050 H       1  UNL1        0.1523
     11 C          66.1242   93.3080   10.2918 C.ar    1  UNL1        0.0515
     12 C          66.6307   94.5347    9.5929 C.ar    1  UNL1        0.0353
     13 C          68.0682   94.6190    9.1731 C.ar    1  UNL1        0.1002
     14 N          68.9993   93.4765    9.4522 N.ar    1  UNL1       -0.2422
     15 C          68.4928   92.2498   10.1511 C.ar    1  UNL1        0.1002
     16 C          67.0552   92.1655   10.5709 C.ar    1  UNL1        0.0353
     17 C          60.9845   89.7869   10.3466 C.3     1  UNL1        0.1694
     18 C          60.8730   88.5400    9.5203 C.ar    1  UNL1        0.0042
     19 C          61.9269   87.4774    9.6201 C.ar    1  UNL1       -0.0022
     20 C          61.8154   86.2305    8.7938 C.ar    1  UNL1       -0.0003
     21 C          60.6499   86.0462    7.8677 C.ar    1  UNL1       -0.0000
     22 C          59.5960   87.1089    7.7679 C.ar    1  UNL1       -0.0003
     23 C          59.7075   88.3558    8.5943 C.ar    1  UNL1       -0.0022
     24 N          59.8796   89.2154   12.6276 N.am    1  UNL1       -0.3272
     25 C          59.9619   90.0796   11.4044 C.2     1  UNL1        0.2415
     26 O          59.0218   91.2366   11.2389 O.2     1  UNL1       -0.2732
     27 H          59.2085   89.4075   13.3218 H       1  UNL1        0.1450
     28 H          60.4967   88.4560   12.7362 H       1  UNL1        0.1450
@<TRIPOS>BOND
     1    24    25   am
     2    25    26    2
     3    25    17    1
     4    17     1    1
     5     1     3    1
     6     3     4    2
     7     4     9    1
     8     9    11    1
     9    11    12   ar
    10    12    13   ar
    11    13    14   ar
    12    14    15   ar
    13    15    16   ar
    14     4     5    1
    15     5     6    2
    16     5     7    1
    17     7     8    2
    18    17    18    1
    19    18    19   ar
    20    19    20   ar
    21    20    21   ar
    22    21    22   ar
    23    22    23   ar
    24     7     3    1
    25    23    18   ar
    26    16    11   ar
    27    24    27    1
    28    24    28    1
    29     1     2    1
    30     9    10    1
@<TRIPOS>MOLECULE
*****
 28 30 0 0 0
SMALL
GASTEIGER

@<TRIPOS>ATOM
      1 N          62.5119   87.6843    9.5378 N.pl3   1  UNL1       -0.3200
      2 H          63.4324   87.9738    9.3427 H       1  UNL1        0.1476
      3 C          61.5111   88.6703   10.0634 C.2     1  UNL1        0.1048
      4 C          61.3021   89.3746   11.3712 C.2     1  UNL1        0.1077
      5 C          60.0958   90.0647   10.8068 C.2     1  UNL1        0.2500
      6 O          59.0950   91.0507   11.3324 O.2     1  UNL1       -0.2817
      7 C          60.3048   89.3604    9.4990 C.2     1  UNL1        0.2498
      8 O          59.5996   89.3503    8.1751 O.2     1  UNL1       -0.2817
      9 N          62.0073   89.3846   12.6951 N.pl3   1  UNL1       -0.3088
     10 H          61.6546   88.8527   13.4447 H       1  UNL1        0.1523
     11 C          63.2498   90.2051   12.8768 C.ar    1  UNL1        0.0515
     12 C          64.0899   90.0316   14.1073 C.ar    1  UNL1        0.0353
     13 C          65.3323   90.8521   14.2889 C.ar    1  UNL1        0.1002
     14 N          65.7347   91.8461   13.2401 N.ar    1  UNL1       -0.2422
     15 C          64.8947   92.0196   12.0097 C.ar    1  UNL1        0.1002
     16 C          63.6522   91.1992   11.8280 C.ar    1  UNL1        0.0353
     17 C          62.1101   86.2572    9.3095 C.3     1  UNL1        0.1694
     18 C          62.6411   85.1764   10.2038 C.ar    1  UNL1        0.0042
     19 C          63.5341   84.1098    9.6425 C.ar    1  UNL1       -0.0022
     20 C          64.0651   83.0290   10.5368 C.ar    1  UNL1       -0.0003
     21 C          63.7030   83.0146   11.9924 C.ar    1  UNL1       -0.0000
     22 C          62.8100   84.0811   12.5537 C.ar    1  UNL1       -0.0003
     23 C          62.2790   85.1620   11.6593 C.ar    1  UNL1       -0.0022
     24 N          59.7147   86.2221    8.3043 N.am    1  UNL1       -0.3272
     25 C          61.1774   85.9111    8.1869 C.2     1  UNL1        0.2415
     26 O          61.7073   85.2540    6.9470 O.2     1  UNL1       -0.2732
     27 H          59.1025   85.9949    7.5675 H       1  UNL1        0.1450
     28 H          59.3668   86.6533    9.1181 H       1  UNL1        0.1450
@<TRIPOS>BOND
     1    24    25   am
     2    25    26    2
     3    25    17    1
     4    17     1    1
     5     1     3    1
     6     3     4    2
     7     4     9    1
     8     9    11    1
     9    11    12   ar
    10    12    13   ar
    11    13    14   ar
    12    14    15   ar
    13    15    16   ar
    14     4     5    1
    15     5     6    2
    16     5     7    1
    17     7     8    2
    18    17    18    1
    19    18    19   ar
    20    19    20   ar
    21    20    21   ar
    22    21    22   ar
    23    22    23   ar
    24     7     3    1
    25    23    18   ar
    26    16    11   ar
    27    24    27    1
    28    24    28    1
    29     1     2    1
    30     9    10    1
@<TRIPOS>MOLECULE
*****
 28 30 0 0 0
SMALL
GASTEIGER

@<TRIPOS>ATOM
      1 N          61.3672   86.2807   11.2173 N.pl3   1  UNL1       -0.3200
      2 H          60.7147   86.1577   11.9442 H       1  UNL1        0.1476
      3 C          62.3476   85.1914   10.8972 C.2     1  UNL1        0.1048
      4 C          62.9792   84.0720   11.6706 C.2     1  UNL1        0.1077
      5 C          63.7341   83.6510   10.4446 C.2     1  UNL1        0.2500
      6 O          64.7145   82.5618   10.1246 O.2     1  UNL1       -0.2817
      7 C          63.1026   84.7705    9.6713 C.2     1  UNL1        0.2498
      8 O          63.1898   85.2644    8.2576 O.2     1  UNL1       -0.2817
      9 N          62.8919   83.5781   13.0842 N.pl3   1  UNL1       -0.3088
     10 H          62.7183   82.6256   13.2630 H       1  UNL1        0.1523
     11 C          63.0690   84.5353   14.2254 C.ar    1  UNL1        0.0515
     12 C          64.0546   85.6606   14.1143 C.ar    1  UNL1        0.0353
     13 C          64.2317   86.6178   15.2555 C.ar    1  UNL1        0.1002
     14 N          63.4232   86.4497   16.5078 N.ar    1  UNL1       -0.2422
     15 C          62.4377   85.3244   16.6189 C.ar    1  UNL1        0.1002
     16 C          62.2606   84.3672   15.4777 C.ar    1  UNL1        0.0353
     17 C          61.3811   87.5573   10.4299 C.3     1  UNL1        0.1694
     18 C          62.2032   88.7202   10.9009 C.ar    1  UNL1        0.0042
     19 C          62.3719   89.9242   10.0224 C.ar    1  UNL1       -0.0022
     20 C          63.1940   91.0870   10.4934 C.ar    1  UNL1       -0.0003
     21 C          63.8475   91.0459   11.8430 C.ar    1  UNL1       -0.0000
     22 C          63.6787   89.8418   12.7216 C.ar    1  UNL1       -0.0003
     23 C          62.8566   88.6789   12.2505 C.ar    1  UNL1       -0.0022
     24 N          60.5756   86.5505    8.1743 N.am    1  UNL1       -0.3272
     25 C          60.5727   87.6711    9.1715 C.2     1  UNL1        0.2415
     26 O          59.7615   88.9054    8.9102 O.2     1  UNL1       -0.2732
     27 H          60.0451   86.6252    7.3484 H       1  UNL1        0.1450
     28 H          61.1081   85.7404    8.3458 H       1  UNL1        0.1450
@<TRIPOS>BOND
     1    24    25   am
     2    25    26    2
     3    25    17    1
     4    17     1    1
     5     1     3    1
     6     3     4    2
     7     4     9    1
     8     9    11    1
     9    11    12   ar
    10    12    13   ar
    11    13    14   ar
    12    14    15   ar
    13    15    16   ar
    14     4     5    1
    15     5     6    2
    16     5     7    1
    17     7     8    2
    18    17    18    1
    19    18    19   ar
    20    19    20   ar
    21    20    21   ar
    22    21    22   ar
    23    22    23   ar
    24     7     3    1
    25    23    18   ar
    26    16    11   ar
    27    24    27    1
    28    24    28    1
    29     1     2    1
    30     9    10    1
@<TRIPOS>MOLECULE
*****
 28 30 0 0 0
SMALL
GASTEIGER

@<TRIPOS>ATOM
      1 N          64.0342   91.5712   12.4119 N.pl3   1  UNL1       -0.3200
      2 H          63.5758   92.1662   11.7755 H       1  UNL1        0.1476
      3 C          65.3056   92.0159   13.0721 C.2     1  UNL1        0.1048
      4 C          66.6579   92.4473   12.5871 C.2     1  UNL1        0.1077
      5 C          67.1037   92.6448   14.0056 C.2     1  UNL1        0.2500
      6 O          68.3751   93.0894   14.6657 O.2     1  UNL1       -0.2817
      7 C          65.7514   92.2134   14.4906 C.2     1  UNL1        0.2498
      8 O          65.1104   92.0479   15.8367 O.2     1  UNL1       -0.2817
      9 N          67.2989   92.6127   11.2411 N.pl3   1  UNL1       -0.3088
     10 H          67.9264   91.9313   10.9076 H       1  UNL1        0.1523
     11 C          66.9838   93.8163   10.4031 C.ar    1  UNL1        0.0515
     12 C          65.9936   94.8317   10.8913 C.ar    1  UNL1        0.0353
     13 C          65.6785   96.0352   10.0533 C.ar    1  UNL1        0.1002
     14 N          66.3537   96.2233    8.7272 N.ar    1  UNL1       -0.2422
     15 C          67.3439   95.2080    8.2390 C.ar    1  UNL1        0.1002
     16 C          67.6590   94.0044    9.0769 C.ar    1  UNL1        0.0353
     17 C          63.4612   90.2200   12.7215 C.3     1  UNL1        0.1694
     18 C          62.7477   89.4453   11.6535 C.ar    1  UNL1        0.0042
     19 C          62.0336   90.1701   10.5514 C.ar    1  UNL1       -0.0022
     20 C          61.3201   89.3955    9.4834 C.ar    1  UNL1       -0.0003
     21 C          61.3206   87.8958    9.5175 C.ar    1  UNL1       -0.0000
     22 C          62.0347   87.1709   10.6195 C.ar    1  UNL1       -0.0003
     23 C          62.7483   87.9457   11.6876 C.ar    1  UNL1       -0.0022
     24 N          62.6700   90.0763   15.1920 N.am    1  UNL1       -0.3272
     25 C          63.6018   89.6434   14.0992 C.2     1  UNL1        0.2415
     26 O          64.6742   88.6340   14.3839 O.2     1  UNL1       -0.2732
     27 H          62.7623   89.6979   16.0962 H       1  UNL1        0.1450
     28 H          61.9661   90.7388   15.0051 H       1  UNL1        0.1450
@<TRIPOS>BOND
     1    24    25   am
     2    25    26    2
     3    25    17    1
     4    17     1    1
     5     1     3    1
     6     3     4    2
     7     4     9    1
     8     9    11    1
     9    11    12   ar
    10    12    13   ar
    11    13    14   ar
    12    14    15   ar
    13    15    16   ar
    14     4     5    1
    15     5     6    2
    16     5     7    1
    17     7     8    2
    18    17    18    1
    19    18    19   ar
    20    19    20   ar
    21    20    21   ar
    22    21    22   ar
    23    22    23   ar
    24     7     3    1
    25    23    18   ar
    26    16    11   ar
    27    24    27    1
    28    24    28    1
    29     1     2    1
    30     9    10    1
@<TRIPOS>MOLECULE
*****
 28 30 0 0 0
SMALL
GASTEIGER

@<TRIPOS>ATOM
      1 N          64.3554   92.4350   12.2002 N.pl3   1  UNL1       -0.3200
      2 H          63.7378   93.1968   12.1131 H       1  UNL1        0.1476
      3 C          63.8234   91.0326   12.1834 C.2     1  UNL1        0.1048
      4 C          63.8603   89.8728   13.1340 C.2     1  UNL1        0.1077
      5 C          63.0712   89.0492   12.1598 C.2     1  UNL1        0.2500
      6 O          62.5393   87.6469   12.1431 O.2     1  UNL1       -0.2817
      7 C          63.0344   90.2090   11.2092 C.2     1  UNL1        0.2498
      8 O          62.4503   90.4468    9.8481 O.2     1  UNL1       -0.2817
      9 N          64.4443   89.6351   14.4950 N.pl3   1  UNL1       -0.3088
     10 H          65.0889   90.2761   14.8729 H       1  UNL1        0.1523
     11 C          64.0461   88.4207   15.2804 C.ar    1  UNL1        0.0515
     12 C          63.2361   88.5706   16.5340 C.ar    1  UNL1        0.0353
     13 C          62.8379   87.3562   17.3193 C.ar    1  UNL1        0.1002
     14 N          63.2498   85.9920   16.8510 N.ar    1  UNL1       -0.2422
     15 C          64.0598   85.8421   15.5975 C.ar    1  UNL1        0.1002
     16 C          64.4579   87.0565   14.8122 C.ar    1  UNL1        0.0353
     17 C          65.8282   92.6768   12.3496 C.3     1  UNL1        0.1694
     18 C          66.6305   93.1653   11.1802 C.ar    1  UNL1        0.0042
     19 C          67.4977   92.2105   10.4143 C.ar    1  UNL1       -0.0022
     20 C          68.3000   92.6990    9.2449 C.ar    1  UNL1       -0.0003
     21 C          68.2352   94.1423    8.8412 C.ar    1  UNL1       -0.0000
     22 C          67.3680   95.0970    9.6071 C.ar    1  UNL1       -0.0003
     23 C          66.5657   94.6084   10.7766 C.ar    1  UNL1       -0.0022
     24 N          67.7930   91.6737   13.7221 N.am    1  UNL1       -0.3272
     25 C          66.4987   92.4300   13.6686 C.2     1  UNL1        0.2415
     26 O          65.8750   92.9395   14.9340 O.2     1  UNL1       -0.2732
     27 H          68.2331   91.5118   14.5877 H       1  UNL1        0.1450
     28 H          68.2024   91.3393   12.8915 H       1  UNL1        0.1450
@<TRIPOS>BOND
     1    24    25   am
     2    25    26    2
     3    25    17    1
     4    17     1    1
     5     1     3    1
     6     3     4    2
     7     4     9    1
     8     9    11    1
     9    11    12   ar
    10    12    13   ar
    11    13    14   ar
    12    14    15   ar
    13    15    16   ar
    14     4     5    1
    15     5     6    2
    16     5     7    1
    17     7     8    2
    18    17    18    1
    19    18    19   ar
    20    19    20   ar
    21    20    21   ar
    22    21    22   ar
    23    22    23   ar
    24     7     3    1
    25    23    18   ar
    26    16    11   ar
    27    24    27    1
    28    24    28    1
    29     1     2    1
    30     9    10    1
@<TRIPOS>MOLECULE
*****
 28 30 0 0 0
SMALL
GASTEIGER

@<TRIPOS>ATOM
      1 N          61.4810   87.5860   11.6102 N.pl3   1  UNL1       -0.3200
      2 H          61.6378   87.0671   12.4321 H       1  UNL1        0.1476
      3 C          61.5043   86.9020   10.2754 C.2     1  UNL1        0.1048
      4 C          62.2115   85.7069    9.7083 C.2     1  UNL1        0.1077
      5 C          61.5374   85.9346    8.3878 C.2     1  UNL1        0.2500
      6 O          61.5607   85.2506    7.0531 O.2     1  UNL1       -0.2817
      7 C          60.8302   87.1297    8.9549 C.2     1  UNL1        0.2498
      8 O          59.8535   88.1359    8.4223 O.2     1  UNL1       -0.2817
      9 N          63.1881   84.7007   10.2410 N.pl3   1  UNL1       -0.3088
     10 H          64.0042   84.4897    9.7323 H       1  UNL1        0.1523
     11 C          62.9215   84.0161   11.5488 C.ar    1  UNL1        0.0515
     12 C          62.9388   84.8041   12.8250 C.ar    1  UNL1        0.0353
     13 C          62.6722   84.1195   14.1327 C.ar    1  UNL1        0.1002
     14 N          62.3883   82.6469   14.1642 N.ar    1  UNL1       -0.2422
     15 C          62.3710   81.8590   12.8880 C.ar    1  UNL1        0.1002
     16 C          62.6376   82.5436   11.5803 C.ar    1  UNL1        0.0353
     17 C          61.2188   89.0606   11.6928 C.3     1  UNL1        0.1694
     18 C          62.3612   90.0304   11.6259 C.ar    1  UNL1        0.0042
     19 C          62.6887   90.7154   10.3323 C.ar    1  UNL1       -0.0022
     20 C          63.8310   91.6852   10.2654 C.ar    1  UNL1       -0.0003
     21 C          64.6460   91.9700   11.4921 C.ar    1  UNL1       -0.0000
     22 C          64.3185   91.2849   12.7857 C.ar    1  UNL1       -0.0003
     23 C          63.1761   90.3151   12.8526 C.ar    1  UNL1       -0.0022
     24 N          58.8296   88.8058   12.6810 N.am    1  UNL1       -0.3272
     25 C          59.8142   89.5654   11.8423 C.2     1  UNL1        0.2415
     26 O          59.3943   90.8298   11.1532 O.2     1  UNL1       -0.2732
     27 H          57.9077   89.1371   12.7792 H       1  UNL1        0.1450
     28 H          59.1052   87.9759   13.1334 H       1  UNL1        0.1450
@<TRIPOS>BOND
     1    24    25   am
     2    25    26    2
     3    25    17    1
     4    17     1    1
     5     1     3    1
     6     3     4    2
     7     4     9    1
     8     9    11    1
     9    11    12   ar
    10    12    13   ar
    11    13    14   ar
    12    14    15   ar
    13    15    16   ar
    14     4     5    1
    15     5     6    2
    16     5     7    1
    17     7     8    2
    18    17    18    1
    19    18    19   ar
    20    19    20   ar
    21    20    21   ar
    22    21    22   ar
    23    22    23   ar
    24     7     3    1
    25    23    18   ar
    26    16    11   ar
    27    24    27    1
    28    24    28    1
    29     1     2    1
    30     9    10    1
