@<TRIPOS>MOLECULE
*****
 22 24 0 0 0
SMALL
GASTEIGER

@<TRIPOS>ATOM
      1 C          66.3262   93.0727   11.5878 C.ar    1  UNL1        0.1724
      2 C          65.1500   92.5462   10.8202 C.ar    1  UNL1        0.0402
      3 C          64.1566   91.6465   11.4939 C.ar    1  UNL1        0.0093
      4 C          62.9804   91.1200   10.7263 C.ar    1  UNL1        0.0210
      5 C          61.9870   90.2204   11.4000 C.ar    1  UNL1        0.1021
      6 N          62.1699   89.8474   12.8413 N.ar    1  UNL1       -0.2098
      7 C          63.3461   90.3739   13.6089 C.ar    1  UNL1        0.2296
      8 C          64.3394   91.2735   12.9352 C.ar    1  UNL1        0.0568
      9 C          65.5157   91.8001   13.7028 C.ar    1  UNL1        0.0447
     10 C          66.5091   92.6996   13.0291 C.ar    1  UNL1        0.1725
     11 C          67.5302   93.8804    9.4318 C.3     1  UNL1        0.2526
     12 O          67.3197   93.9723   10.9141 O.3     1  UNL1       -0.4684
     13 O          67.6853   93.2262   13.7967 O.3     1  UNL1       -0.4684
     14 C          67.6049   93.3690   15.2877 C.3     1  UNL1        0.2526
     15 O          63.5289   90.0008   15.0502 O.3     1  UNL1       -0.4361
     16 C          63.6237   88.5569   15.4450 C.ar    1  UNL1        0.1473
     17 C          62.9988   88.0867   16.7251 C.ar    1  UNL1        0.0399
     18 C          63.0936   86.6427   17.1199 C.ar    1  UNL1        0.0328
     19 C          63.8132   85.6688   16.2346 C.ar    1  UNL1        0.1403
     20 F          63.9079   84.2248   16.6295 F       1  UNL1       -0.2042
     21 C          64.4380   86.1389   14.9546 C.ar    1  UNL1        0.0328
     22 C          64.3433   87.5830   14.5597 C.ar    1  UNL1        0.0399
@<TRIPOS>BOND
     1    11    12    1
     2    12     1    1
     3     1     2   ar
     4     2     3   ar
     5     3     4   ar
     6     4     5   ar
     7     5     6   ar
     8     6     7   ar
     9     7    15    1
    10    15    16    1
    11    16    17   ar
    12    17    18   ar
    13    18    19   ar
    14    19    20    1
    15    19    21   ar
    16    21    22   ar
    17     7     8   ar
    18     8     9   ar
    19     9    10   ar
    20    10    13    1
    21    13    14    1
    22    10     1   ar
    23     8     3   ar
    24    22    16   ar
@<TRIPOS>MOLECULE
*****
 22 24 0 0 0
SMALL
GASTEIGER

@<TRIPOS>ATOM
      1 C          63.4219   82.6680   12.6737 C.ar    1  UNL1        0.1724
      2 C          63.5483   82.8104   11.1859 C.ar    1  UNL1        0.0402
      3 C          63.1631   84.0983   10.5203 C.ar    1  UNL1        0.0093
      4 C          63.2895   84.2407    9.0324 C.ar    1  UNL1        0.0210
      5 C          62.9044   85.5285    8.3669 C.ar    1  UNL1        0.1021
      6 N          62.3928   86.6740    9.1891 N.ar    1  UNL1       -0.2098
      7 C          62.2664   86.5317   10.6770 C.ar    1  UNL1        0.2296
      8 C          62.6516   85.2438   11.3425 C.ar    1  UNL1        0.0568
      9 C          62.5252   85.1014   12.8305 C.ar    1  UNL1        0.0447
     10 C          62.9103   83.8135   13.4960 C.ar    1  UNL1        0.1725
     11 C          62.7573   80.3569   13.6573 C.3     1  UNL1        0.2526
     12 O          63.8071   81.3801   13.3394 O.3     1  UNL1       -0.4684
     13 O          62.7839   83.6711   14.9839 O.3     1  UNL1       -0.4684
     14 C          62.7725   84.8916   15.8559 C.3     1  UNL1        0.2526
     15 O          61.7548   87.6772   11.4993 O.3     1  UNL1       -0.4361
     16 C          62.5548   88.9417   11.6034 C.ar    1  UNL1        0.1473
     17 C          63.3557   89.2229   12.8401 C.ar    1  UNL1        0.0399
     18 C          64.1556   90.4875   12.9443 C.ar    1  UNL1        0.0328
     19 C          64.1547   91.4710   11.8117 C.ar    1  UNL1        0.1403
     20 F          64.9546   92.7356   11.9159 F       1  UNL1       -0.2042
     21 C          63.3537   91.1899   10.5750 C.ar    1  UNL1        0.0328
     22 C          62.5538   89.9253   10.4708 C.ar    1  UNL1        0.0399
@<TRIPOS>BOND
     1    11    12    1
     2    12     1    1
     3     1     2   ar
     4     2     3   ar
     5     3     4   ar
     6     4     5   ar
     7     5     6   ar
     8     6     7   ar
     9     7    15    1
    10    15    16    1
    11    16    17   ar
    12    17    18   ar
    13    18    19   ar
    14    19    20    1
    15    19    21   ar
    16    21    22   ar
    17     7     8   ar
    18     8     9   ar
    19     9    10   ar
    20    10    13    1
    21    13    14    1
    22    10     1   ar
    23     8     3   ar
    24    22    16   ar
@<TRIPOS>MOLECULE
*****
 22 24 0 0 0
SMALL
GASTEIGER

@<TRIPOS>ATOM
      1 C          61.3854   89.8267   10.1080 C.ar    1  UNL1        0.1724
      2 C          62.5755   90.6903    9.8118 C.ar    1  UNL1        0.0402
      3 C          63.4310   91.1991   10.9340 C.ar    1  UNL1        0.0093
      4 C          64.6211   92.0627   10.6378 C.ar    1  UNL1        0.0210
      5 C          65.4765   92.5714   11.7600 C.ar    1  UNL1        0.1021
      6 N          65.1418   92.2165   13.1785 N.ar    1  UNL1       -0.2098
      7 C          63.9518   91.3529   13.4747 C.ar    1  UNL1        0.2296
      8 C          63.0963   90.8441   12.3525 C.ar    1  UNL1        0.0568
      9 C          61.9062   89.9805   12.6487 C.ar    1  UNL1        0.0447
     10 C          61.0508   89.4717   11.5265 C.ar    1  UNL1        0.1725
     11 C          60.4817   87.8490    8.6860 C.3     1  UNL1        0.2526
     12 O          60.5300   89.3179    8.9858 O.3     1  UNL1       -0.4684
     13 O          59.8606   88.6081   11.8227 O.3     1  UNL1       -0.4684
     14 C          58.7312   89.1457   12.6506 C.3     1  UNL1        0.2526
     15 O          63.6171   90.9979   14.8932 O.3     1  UNL1       -0.4361
     16 C          63.6607   89.5662   15.3383 C.ar    1  UNL1        0.1473
     17 C          64.3714   88.5425   14.5035 C.ar    1  UNL1        0.0399
     18 C          64.4151   87.1108   14.9486 C.ar    1  UNL1        0.0328
     19 C          63.7480   86.7027   16.2287 C.ar    1  UNL1        0.1403
     20 F          63.7916   85.2709   16.6738 F       1  UNL1       -0.2042
     21 C          63.0373   87.7263   17.0635 C.ar    1  UNL1        0.0328
     22 C          62.9936   89.1581   16.6184 C.ar    1  UNL1        0.0399
@<TRIPOS>BOND
     1    11    12    1
     2    12     1    1
     3     1     2   ar
     4     2     3   ar
     5     3     4   ar
     6     4     5   ar
     7     5     6   ar
     8     6     7   ar
     9     7    15    1
    10    15    16    1
    11    16    17   ar
    12    17    18   ar
    13    18    19   ar
    14    19    20    1
    15    19    21   ar
    16    21    22   ar
    17     7     8   ar
    18     8     9   ar
    19     9    10   ar
    20    10    13    1
    21    13    14    1
    22    10     1   ar
    23     8     3   ar
    24    22    16   ar
@<TRIPOS>MOLECULE
*****
 22 24 0 0 0
SMALL
GASTEIGER

@<TRIPOS>ATOM
      1 C          63.5026   85.1872   15.9300 C.ar    1  UNL1        0.1724
      2 C          62.9155   83.8142   15.7884 C.ar    1  UNL1        0.0402
      3 C          62.8212   83.1747   14.4348 C.ar    1  UNL1        0.0093
      4 C          62.2342   81.8017   14.2932 C.ar    1  UNL1        0.0210
      5 C          62.1399   81.1623   12.9396 C.ar    1  UNL1        0.1021
      6 N          62.6327   81.8959   11.7276 N.ar    1  UNL1       -0.2098
      7 C          63.2198   83.2690   11.8692 C.ar    1  UNL1        0.2296
      8 C          63.3140   83.9084   13.2228 C.ar    1  UNL1        0.0568
      9 C          63.9011   85.2815   13.3644 C.ar    1  UNL1        0.0447
     10 C          63.9954   85.9209   14.7180 C.ar    1  UNL1        0.1725
     11 C          62.5293   86.7761   17.7406 C.3     1  UNL1        0.2526
     12 O          63.5969   85.8267   17.2836 O.3     1  UNL1       -0.4684
     13 O          64.5825   87.2940   14.8596 O.3     1  UNL1       -0.4684
     14 C          64.0978   88.4109   13.9835 C.3     1  UNL1        0.2526
     15 O          63.7126   84.0026   10.6572 O.3     1  UNL1       -0.4361
     16 C          62.7619   84.8287    9.8425 C.ar    1  UNL1        0.1473
     17 C          61.7225   85.6677   10.5251 C.ar    1  UNL1        0.0399
     18 C          60.7719   86.4938    9.7105 C.ar    1  UNL1        0.0328
     19 C          60.8606   86.4811    8.2131 C.ar    1  UNL1        0.1403
     20 F          59.9099   87.3073    7.3985 F       1  UNL1       -0.2042
     21 C          61.8999   85.6422    7.5305 C.ar    1  UNL1        0.0328
     22 C          62.8506   84.8160    8.3452 C.ar    1  UNL1        0.0399
@<TRIPOS>BOND
     1    11    12    1
     2    12     1    1
     3     1     2   ar
     4     2     3   ar
     5     3     4   ar
     6     4     5   ar
     7     5     6   ar
     8     6     7   ar
     9     7    15    1
    10    15    16    1
    11    16    17   ar
    12    17    18   ar
    13    18    19   ar
    14    19    20    1
    15    19    21   ar
    16    21    22   ar
    17     7     8   ar
    18     8     9   ar
    19     9    10   ar
    20    10    13    1
    21    13    14    1
    22    10     1   ar
    23     8     3   ar
    24    22    16   ar
@<TRIPOS>MOLECULE
*****
 22 24 0 0 0
SMALL
GASTEIGER

@<TRIPOS>ATOM
      1 C          63.7450   90.8209   12.4805 C.ar    1  UNL1        0.1724
      2 C          63.0089   90.3305   11.2691 C.ar    1  UNL1        0.0402
      3 C          62.6569   88.8779   11.1422 C.ar    1  UNL1        0.0093
      4 C          61.9208   88.3876    9.9308 C.ar    1  UNL1        0.0210
      5 C          61.5689   86.9350    9.8040 C.ar    1  UNL1        0.1021
      6 N          61.9530   85.9728   10.8887 N.ar    1  UNL1       -0.2098
      7 C          62.6890   86.4631   12.1002 C.ar    1  UNL1        0.2296
      8 C          63.0410   87.9157   12.2270 C.ar    1  UNL1        0.0568
      9 C          63.7771   88.4061   13.4385 C.ar    1  UNL1        0.0447
     10 C          64.1291   89.8586   13.5653 C.ar    1  UNL1        0.1725
     11 C          65.4746   92.7456   12.2476 C.3     1  UNL1        0.2526
     12 O          64.0970   92.2735   12.6074 O.3     1  UNL1       -0.4684
     13 O          64.8652   90.3491   14.7768 O.3     1  UNL1       -0.4684
     14 C          64.1282   91.0887   15.8537 C.3     1  UNL1        0.2526
     15 O          63.0731   85.5009   13.1849 O.3     1  UNL1       -0.4361
     16 C          62.9319   84.0243   12.9622 C.ar    1  UNL1        0.1473
     17 C          63.4528   83.4029   11.7001 C.ar    1  UNL1        0.0399
     18 C          63.3116   81.9263   11.4774 C.ar    1  UNL1        0.0328
     19 C          62.6495   81.0710   12.5166 C.ar    1  UNL1        0.1403
     20 F          62.5084   79.5943   12.2939 F       1  UNL1       -0.2042
     21 C          62.1287   81.6923   13.7786 C.ar    1  UNL1        0.0328
     22 C          62.2698   83.1689   14.0014 C.ar    1  UNL1        0.0399
@<TRIPOS>BOND
     1    11    12    1
     2    12     1    1
     3     1     2   ar
     4     2     3   ar
     5     3     4   ar
     6     4     5   ar
     7     5     6   ar
     8     6     7   ar
     9     7    15    1
    10    15    16    1
    11    16    17   ar
    12    17    18   ar
    13    18    19   ar
    14    19    20    1
    15    19    21   ar
    16    21    22   ar
    17     7     8   ar
    18     8     9   ar
    19     9    10   ar
    20    10    13    1
    21    13    14    1
    22    10     1   ar
    23     8     3   ar
    24    22    16   ar
@<TRIPOS>MOLECULE
*****
 22 24 0 0 0
SMALL
GASTEIGER

@<TRIPOS>ATOM
      1 C          63.0065   84.4081   11.4717 C.ar    1  UNL1        0.1724
      2 C          62.2383   84.8543   10.2632 C.ar    1  UNL1        0.0402
      3 C          61.7702   86.2753   10.1545 C.ar    1  UNL1        0.0093
      4 C          61.0019   86.7216    8.9459 C.ar    1  UNL1        0.0210
      5 C          60.5339   88.1425    8.8373 C.ar    1  UNL1        0.1021
      6 N          60.8342   89.1172    9.9372 N.ar    1  UNL1       -0.2098
      7 C          61.6024   88.6710   11.1457 C.ar    1  UNL1        0.2296
      8 C          62.0705   87.2501   11.2544 C.ar    1  UNL1        0.0568
      9 C          62.8388   86.8038   12.4630 C.ar    1  UNL1        0.0447
     10 C          63.3068   85.3828   12.5716 C.ar    1  UNL1        0.1725
     11 C          64.0836   82.3050   10.3914 C.3     1  UNL1        0.2526
     12 O          63.4746   82.9871   11.5804 O.3     1  UNL1       -0.4684
     13 O          64.0751   84.9366   13.7802 O.3     1  UNL1       -0.4684
     14 C          64.4911   85.9381   14.8164 C.3     1  UNL1        0.2526
     15 O          61.9027   89.6457   12.2456 O.3     1  UNL1       -0.4361
     16 C          63.0983   90.5459   12.1444 C.ar    1  UNL1        0.1473
     17 C          63.4357   91.2006   10.8376 C.ar    1  UNL1        0.0399
     18 C          64.6313   92.1007   10.7364 C.ar    1  UNL1        0.0328
     19 C          65.4895   92.3462   11.9418 C.ar    1  UNL1        0.1403
     20 F          66.6851   93.2464   11.8405 F       1  UNL1       -0.2042
     21 C          65.1522   91.6915   13.2486 C.ar    1  UNL1        0.0328
     22 C          63.9565   90.7913   13.3499 C.ar    1  UNL1        0.0399
@<TRIPOS>BOND
     1    11    12    1
     2    12     1    1
     3     1     2   ar
     4     2     3   ar
     5     3     4   ar
     6     4     5   ar
     7     5     6   ar
     8     6     7   ar
     9     7    15    1
    10    15    16    1
    11    16    17   ar
    12    17    18   ar
    13    18    19   ar
    14    19    20    1
    15    19    21   ar
    16    21    22   ar
    17     7     8   ar
    18     8     9   ar
    19     9    10   ar
    20    10    13    1
    21    13    14    1
    22    10     1   ar
    23     8     3   ar
    24    22    16   ar
@<TRIPOS>MOLECULE
*****
 22 24 0 0 0
SMALL
GASTEIGER

@<TRIPOS>ATOM
      1 C          63.8049   91.0543   12.4152 C.ar    1  UNL1        0.1724
      2 C          62.9726   91.2453   11.1821 C.ar    1  UNL1        0.0402
      3 C          62.1243   90.1200   10.6679 C.ar    1  UNL1        0.0093
      4 C          61.2921   90.3111    9.4347 C.ar    1  UNL1        0.0210
      5 C          60.4439   89.1858    8.9207 C.ar    1  UNL1        0.1021
      6 N          60.4280   87.8695    9.6398 N.ar    1  UNL1       -0.2098
      7 C          61.2603   87.6785   10.8729 C.ar    1  UNL1        0.2296
      8 C          62.1085   88.8037   11.3870 C.ar    1  UNL1        0.0568
      9 C          62.9408   88.6127   12.6203 C.ar    1  UNL1        0.0447
     10 C          63.7890   89.7380   13.1343 C.ar    1  UNL1        0.1725
     11 C          65.8527   92.6311   12.1503 C.3     1  UNL1        0.2526
     12 O          64.6531   92.1796   12.9294 O.3     1  UNL1       -0.4684
     13 O          64.6213   89.5470   14.3676 O.3     1  UNL1       -0.4684
     14 C          63.9968   88.9989   15.6164 C.3     1  UNL1        0.2526
     15 O          61.2444   86.3622   11.5920 O.3     1  UNL1       -0.4361
     16 C          62.1687   85.2617   11.1625 C.ar    1  UNL1        0.1473
     17 C          62.6149   84.2274   12.1531 C.ar    1  UNL1        0.0399
     18 C          63.5392   83.1270   11.7236 C.ar    1  UNL1        0.0328
     19 C          64.0173   83.0606   10.3034 C.ar    1  UNL1        0.1403
     20 F          64.9417   81.9601    9.8739 F       1  UNL1       -0.2042
     21 C          63.5712   84.0948    9.3127 C.ar    1  UNL1        0.0328
     22 C          62.6468   85.1953    9.7423 C.ar    1  UNL1        0.0399
@<TRIPOS>BOND
     1    11    12    1
     2    12     1    1
     3     1     2   ar
     4     2     3   ar
     5     3     4   ar
     6     4     5   ar
     7     5     6   ar
     8     6     7   ar
     9     7    15    1
    10    15    16    1
    11    16    17   ar
    12    17    18   ar
    13    18    19   ar
    14    19    20    1
    15    19    21   ar
    16    21    22   ar
    17     7     8   ar
    18     8     9   ar
    19     9    10   ar
    20    10    13    1
    21    13    14    1
    22    10     1   ar
    23     8     3   ar
    24    22    16   ar
@<TRIPOS>MOLECULE
*****
 22 24 0 0 0
SMALL
GASTEIGER

@<TRIPOS>ATOM
      1 C          63.3274   82.9812   14.5599 C.ar    1  UNL1        0.1724
      2 C          62.6883   83.5870   15.7742 C.ar    1  UNL1        0.0402
      3 C          62.8796   85.0442   16.0744 C.ar    1  UNL1        0.0093
      4 C          62.2405   85.6499   17.2887 C.ar    1  UNL1        0.0210
      5 C          62.4319   87.1070   17.5889 C.ar    1  UNL1        0.1021
      6 N          63.2623   87.9584   16.6748 N.ar    1  UNL1       -0.2098
      7 C          63.9014   87.3526   15.4605 C.ar    1  UNL1        0.2296
      8 C          63.7101   85.8955   15.1603 C.ar    1  UNL1        0.0568
      9 C          64.3491   85.2896   13.9460 C.ar    1  UNL1        0.0447
     10 C          64.1578   83.8325   13.6458 C.ar    1  UNL1        0.1725
     11 C          61.8772   81.0547   13.5924 C.3     1  UNL1        0.2526
     12 O          63.1360   81.5240   14.2596 O.3     1  UNL1       -0.4684
     13 O          64.7969   83.2267   12.4314 O.3     1  UNL1       -0.4684
     14 C          64.0903   83.2749   11.1091 C.3     1  UNL1        0.2526
     15 O          64.7318   88.2039   14.5464 O.3     1  UNL1       -0.4361
     16 C          64.0773   88.9728   13.4372 C.ar    1  UNL1        0.1473
     17 C          64.2614   90.4586   13.3442 C.ar    1  UNL1        0.0399
     18 C          63.6069   91.2275   12.2350 C.ar    1  UNL1        0.0328
     19 C          62.7683   90.5106   11.2187 C.ar    1  UNL1        0.1403
     20 F          62.1138   91.2795   10.1094 F       1  UNL1       -0.2042
     21 C          62.5842   89.0249   11.3116 C.ar    1  UNL1        0.0328
     22 C          63.2388   88.2559   12.4209 C.ar    1  UNL1        0.0399
@<TRIPOS>BOND
     1    11    12    1
     2    12     1    1
     3     1     2   ar
     4     2     3   ar
     5     3     4   ar
     6     4     5   ar
     7     5     6   ar
     8     6     7   ar
     9     7    15    1
    10    15    16    1
    11    16    17   ar
    12    17    18   ar
    13    18    19   ar
    14    19    20    1
    15    19    21   ar
    16    21    22   ar
    17     7     8   ar
    18     8     9   ar
    19     9    10   ar
    20    10    13    1
    21    13    14    1
    22    10     1   ar
    23     8     3   ar
    24    22    16   ar
@<TRIPOS>MOLECULE
*****
 22 24 0 0 0
SMALL
GASTEIGER

@<TRIPOS>ATOM
      1 C          61.7776   87.0627   10.5163 C.ar    1  UNL1        0.1724
      2 C          61.9185   88.4041    9.8601 C.ar    1  UNL1        0.0402
      3 C          62.6773   89.4998   10.5485 C.ar    1  UNL1        0.0093
      4 C          62.8182   90.8413    9.8922 C.ar    1  UNL1        0.0210
      5 C          63.5769   91.9369   10.5806 C.ar    1  UNL1        0.1021
      6 N          64.1947   91.6911   11.9252 N.ar    1  UNL1       -0.2098
      7 C          64.0537   90.3497   12.5815 C.ar    1  UNL1        0.2296
      8 C          63.2950   89.2540   11.8931 C.ar    1  UNL1        0.0568
      9 C          63.1540   87.9125   12.5493 C.ar    1  UNL1        0.0447
     10 C          62.3953   86.8169   11.8609 C.ar    1  UNL1        0.1725
     11 C          60.3810   86.2199    8.4941 C.3     1  UNL1        0.2526
     12 O          61.0188   85.9670    9.8279 O.3     1  UNL1       -0.4684
     13 O          62.2543   85.4754   12.5171 O.3     1  UNL1       -0.4684
     14 C          63.1835   84.3578   12.1463 C.3     1  UNL1        0.2526
     15 O          64.6715   90.1039   13.9261 O.3     1  UNL1       -0.4361
     16 C          65.6324   91.1004   14.5034 C.ar    1  UNL1        0.1473
     17 C          65.2668   91.8647   15.7413 C.ar    1  UNL1        0.0399
     18 C          66.2278   92.8613   16.3187 C.ar    1  UNL1        0.0328
     19 C          67.5544   93.0936   15.6582 C.ar    1  UNL1        0.1403
     20 F          68.5154   94.0902   16.2357 F       1  UNL1       -0.2042
     21 C          67.9200   92.3293   14.4204 C.ar    1  UNL1        0.0328
     22 C          66.9590   91.3327   13.8430 C.ar    1  UNL1        0.0399
@<TRIPOS>BOND
     1    11    12    1
     2    12     1    1
     3     1     2   ar
     4     2     3   ar
     5     3     4   ar
     6     4     5   ar
     7     5     6   ar
     8     6     7   ar
     9     7    15    1
    10    15    16    1
    11    16    17   ar
    12    17    18   ar
    13    18    19   ar
    14    19    20    1
    15    19    21   ar
    16    21    22   ar
    17     7     8   ar
    18     8     9   ar
    19     9    10   ar
    20    10    13    1
    21    13    14    1
    22    10     1   ar
    23     8     3   ar
    24    22    16   ar
