@<TRIPOS>MOLECULE
*****
 36 40 0 0 0
SMALL
GASTEIGER

@<TRIPOS>ATOM
      1 C          63.9527   85.8277   15.0352 C.3     1  UNL1        0.1909
      2 C          64.8819   84.6531   14.9529 C.3     1  UNL1        0.1783
      3 O          64.3935   83.7513   13.8583 O.3     1  UNL1       -0.3267
      4 C          63.1623   84.3686   13.2640 C.3     1  UNL1        0.2296
      5 O          62.8898   85.6519   13.9913 O.3     1  UNL1       -0.3255
      6 C          63.1781   83.1617   12.3735 C.ar    1  UNL1        0.0409
      7 C          63.8443   83.2287   11.0312 C.ar    1  UNL1        0.0022
      8 C          63.8601   82.0217   10.1407 C.ar    1  UNL1        0.0113
      9 C          63.2096   80.7478   10.5924 C.ar    1  UNL1        0.0585
     10 CL         63.2254   79.5409    9.7019 Cl      1  UNL1       -0.0822
     11 C          62.5434   80.6809   11.9347 C.ar    1  UNL1        0.0226
     12 C          62.5276   81.8878   12.8252 C.ar    1  UNL1        0.0591
     13 CL         61.8614   81.8208   14.1675 Cl      1  UNL1       -0.0824
     14 C          64.0663   86.9764   15.9931 C.3     1  UNL1        0.2374
     15 O          63.2737   88.2284   15.7601 O.3     1  UNL1       -0.4727
     16 C          64.8625   91.4185   13.0125 C.ar    1  UNL1        0.0481
     17 C          65.6613   90.9929   14.2086 C.ar    1  UNL1        0.0176
     18 C          65.1317   89.9296   15.1245 C.ar    1  UNL1        0.0382
     19 C          63.8033   89.2918   14.8442 C.ar    1  UNL1        0.1388
     20 C          63.0045   89.7173   13.6481 C.ar    1  UNL1        0.0382
     21 C          63.5341   90.7807   12.7322 C.ar    1  UNL1        0.0176
     22 C          66.7842   95.5513    7.8669 C.3     1  UNL1        0.0948
     23 C          66.9808   95.6719    9.3490 C.2     1  UNL1        0.2262
     24 O          67.7070   96.8560    9.9153 O.2     1  UNL1       -0.2749
     25 N          66.4512   94.6086   10.2649 N.am    1  UNL1       -0.2760
     26 C          65.7250   93.4246    9.6986 C.3     1  UNL1        0.1148
     27 C          65.1954   92.3612   10.6145 C.3     1  UNL1        0.1123
     28 N          65.3921   92.4819   12.0966 N.pl3   1  UNL1       -0.3041
     29 C          66.1183   93.6659   12.6629 C.3     1  UNL1        0.1123
     30 C          66.6479   94.7292   11.7470 C.3     1  UNL1        0.1148
     31 C          61.9344   84.7337   12.4835 C.3     1  UNL1        0.1682
     32 N          61.9989   85.8154   11.4464 N.ar    1  UNL1       -0.3025
     33 C          61.4859   85.7203   10.0401 C.ar    1  UNL1        0.0982
     34 C          61.7577   87.0283    9.3581 C.ar    1  UNL1        0.1193
     35 N          62.4386   87.9319   10.3429 N.ar    1  UNL1       -0.2223
     36 C          62.5877   87.1823   11.6336 C.ar    1  UNL1        0.1788
@<TRIPOS>BOND
     1    22    23    1
     2    23    24    2
     3    23    25   am
     4    25    26    1
     5    26    27    1
     6    27    28    1
     7    28    16    1
     8    16    17   ar
     9    17    18   ar
    10    18    19   ar
    11    19    15    1
    12    15    14    1
    13     1    14    1
    14     1     2    1
    15     2     3    1
    16     3     4    1
    17     4    31    1
    18    31    32    1
    19    32    33   ar
    20    33    34   ar
    21    34    35   ar
    22    35    36   ar
    23     4     6    1
    24     6     7   ar
    25     7     8   ar
    26     8     9   ar
    27     9    10    1
    28     9    11   ar
    29    11    12   ar
    30    12    13    1
    31     4     5    1
    32    19    20   ar
    33    20    21   ar
    34    28    29    1
    35    29    30    1
    36    30    25    1
    37    21    16   ar
    38     5     1    1
    39    36    32   ar
    40    12     6   ar
@<TRIPOS>MOLECULE
*****
 36 40 0 0 0
SMALL
GASTEIGER

@<TRIPOS>ATOM
      1 C          63.3332   89.6723   15.7679 C.3     1  UNL1        0.1909
      2 C          63.8955   91.0493   15.9621 C.3     1  UNL1        0.1783
      3 O          64.3828   91.5429   14.6320 O.3     1  UNL1       -0.3267
      4 C          64.1217   90.4709   13.6158 C.3     1  UNL1        0.2296
      5 O          63.4729   89.3148   14.3177 O.3     1  UNL1       -0.3255
      6 C          64.7429   91.4454   12.6597 C.ar    1  UNL1        0.0409
      7 C          63.9973   91.8667   11.4281 C.ar    1  UNL1        0.0022
      8 C          64.6186   92.8413   10.4719 C.ar    1  UNL1        0.0113
      9 C          65.9854   93.3945   10.7472 C.ar    1  UNL1        0.0585
     10 CL         66.6067   94.3690    9.7910 Cl      1  UNL1       -0.0822
     11 C          66.7310   92.9731   11.9788 C.ar    1  UNL1        0.0226
     12 C          66.1097   91.9987   12.9349 C.ar    1  UNL1        0.0591
     13 CL         66.8552   91.5773   14.1665 Cl      1  UNL1       -0.0824
     14 C          62.7359   88.8051   16.8361 C.3     1  UNL1        0.2374
     15 O          63.3972   87.5114   17.2087 O.3     1  UNL1       -0.4727
     16 C          63.1329   83.9712   14.4434 C.ar    1  UNL1        0.0481
     17 C          64.1722   85.0277   14.2119 C.ar    1  UNL1        0.0176
     18 C          64.2603   86.2078   15.1337 C.ar    1  UNL1        0.0382
     19 C          63.3091   86.3313   16.2869 C.ar    1  UNL1        0.1388
     20 C          62.2699   85.2748   16.5184 C.ar    1  UNL1        0.0382
     21 C          62.1818   84.0947   15.5966 C.ar    1  UNL1        0.0176
     22 C          63.0338   79.4254    9.2882 C.3     1  UNL1        0.0948
     23 C          62.7805   79.2509   10.7563 C.2     1  UNL1        0.2262
     24 O          62.4391   77.8963   11.3026 O.2     1  UNL1       -0.2749
     25 N          62.8686   80.4310   11.6781 N.am    1  UNL1       -0.2760
     26 C          63.2100   81.7855   11.1317 C.3     1  UNL1        0.1148
     27 C          63.2981   82.9656   12.0535 C.3     1  UNL1        0.1123
     28 N          63.0448   82.7911   13.5216 N.pl3   1  UNL1       -0.3041
     29 C          62.7034   81.4365   14.0679 C.3     1  UNL1        0.1123
     30 C          62.6153   80.2564   13.1461 C.3     1  UNL1        0.1148
     31 C          63.9904   89.6026   12.3997 C.3     1  UNL1        0.1682
     32 N          62.6471   89.0659   12.0028 N.ar    1  UNL1       -0.3025
     33 C          61.3609   89.8372   11.9808 C.ar    1  UNL1        0.0982
     34 C          60.2731   88.9116   11.5226 C.ar    1  UNL1        0.1193
     35 N          60.8871   87.5682   11.2613 N.ar    1  UNL1       -0.2223
     36 C          62.3543   87.6635   11.5581 C.ar    1  UNL1        0.1788
@<TRIPOS>BOND
     1    22    23    1
     2    23    24    2
     3    23    25   am
     4    25    26    1
     5    26    27    1
     6    27    28    1
     7    28    16    1
     8    16    17   ar
     9    17    18   ar
    10    18    19   ar
    11    19    15    1
    12    15    14    1
    13     1    14    1
    14     1     2    1
    15     2     3    1
    16     3     4    1
    17     4    31    1
    18    31    32    1
    19    32    33   ar
    20    33    34   ar
    21    34    35   ar
    22    35    36   ar
    23     4     6    1
    24     6     7   ar
    25     7     8   ar
    26     8     9   ar
    27     9    10    1
    28     9    11   ar
    29    11    12   ar
    30    12    13    1
    31     4     5    1
    32    19    20   ar
    33    20    21   ar
    34    28    29    1
    35    29    30    1
    36    30    25    1
    37    21    16   ar
    38     5     1    1
    39    36    32   ar
    40    12     6   ar
@<TRIPOS>MOLECULE
*****
 36 40 0 0 0
SMALL
GASTEIGER

@<TRIPOS>ATOM
      1 C          65.8674   92.4969   14.4086 C.3     1  UNL1        0.1909
      2 C          66.4896   93.8614   14.3788 C.3     1  UNL1        0.1783
      3 O          66.6025   94.2883   12.9453 O.3     1  UNL1       -0.3267
      4 C          66.0500   93.1876   12.0890 C.3     1  UNL1        0.2296
      5 O          65.5956   92.0804   12.9934 O.3     1  UNL1       -0.3255
      6 C          66.4042   94.1046   10.9562 C.ar    1  UNL1        0.0409
      7 C          65.7224   95.4344   10.8264 C.ar    1  UNL1        0.0022
      8 C          66.0767   96.3515    9.6935 C.ar    1  UNL1        0.0113
      9 C          67.1128   95.9389    8.6905 C.ar    1  UNL1        0.0585
     10 CL         67.4671   96.8560    7.5576 Cl      1  UNL1       -0.0822
     11 C          67.7947   94.6091    8.8203 C.ar    1  UNL1        0.0226
     12 C          67.4404   93.6920    9.9531 C.ar    1  UNL1        0.0591
     13 CL         68.1222   92.3623   10.0829 Cl      1  UNL1       -0.0824
     14 C          65.5692   91.6905   15.6377 C.3     1  UNL1        0.2374
     15 O          64.2250   91.0461   15.8041 O.3     1  UNL1       -0.4727
     16 C          63.6661   86.7047   14.7599 C.ar    1  UNL1        0.0481
     17 C          63.3067   87.1989   16.1298 C.ar    1  UNL1        0.0176
     18 C          63.4930   88.6460   16.4778 C.ar    1  UNL1        0.0382
     19 C          64.0387   89.5990   15.4560 C.ar    1  UNL1        0.1388
     20 C          64.3981   89.1048   14.0862 C.ar    1  UNL1        0.0382
     21 C          64.2118   87.6577   13.7381 C.ar    1  UNL1        0.0176
     22 C          62.8439   80.4945   11.9302 C.3     1  UNL1        0.0948
     23 C          62.9209   80.9163   13.3676 C.2     1  UNL1        0.2262
     24 O          62.8116   79.8909   14.4569 O.2     1  UNL1       -0.2749
     25 N          63.1072   82.3634   13.7157 N.am    1  UNL1       -0.2760
     26 C          63.2165   83.3888   12.6264 C.3     1  UNL1        0.1148
     27 C          63.4028   84.8359   12.9744 C.3     1  UNL1        0.1123
     28 N          63.4798   85.2576   14.4118 N.pl3   1  UNL1       -0.3041
     29 C          63.3705   84.2323   15.5011 C.3     1  UNL1        0.1123
     30 C          63.1842   82.7852   15.1531 C.3     1  UNL1        0.1148
     31 C          65.5714   92.2785   10.9960 C.3     1  UNL1        0.1682
     32 N          64.1877   91.7023   11.0516 N.ar    1  UNL1       -0.3025
     33 C          63.4280   91.3517   12.2965 C.ar    1  UNL1        0.0982
     34 C          62.0915   90.8082   11.8864 C.ar    1  UNL1        0.1193
     35 N          62.0251   90.8229   10.3880 N.ar    1  UNL1       -0.2223
     36 C          63.3206   91.3755    9.8720 C.ar    1  UNL1        0.1788
@<TRIPOS>BOND
     1    22    23    1
     2    23    24    2
     3    23    25   am
     4    25    26    1
     5    26    27    1
     6    27    28    1
     7    28    16    1
     8    16    17   ar
     9    17    18   ar
    10    18    19   ar
    11    19    15    1
    12    15    14    1
    13     1    14    1
    14     1     2    1
    15     2     3    1
    16     3     4    1
    17     4    31    1
    18    31    32    1
    19    32    33   ar
    20    33    34   ar
    21    34    35   ar
    22    35    36   ar
    23     4     6    1
    24     6     7   ar
    25     7     8   ar
    26     8     9   ar
    27     9    10    1
    28     9    11   ar
    29    11    12   ar
    30    12    13    1
    31     4     5    1
    32    19    20   ar
    33    20    21   ar
    34    28    29    1
    35    29    30    1
    36    30    25    1
    37    21    16   ar
    38     5     1    1
    39    36    32   ar
    40    12     6   ar
@<TRIPOS>MOLECULE
*****
 36 40 0 0 0
SMALL
GASTEIGER

@<TRIPOS>ATOM
      1 C          59.4931   88.0557    7.5370 C.3     1  UNL1        0.1909
      2 C          59.2238   86.5858    7.6670 C.3     1  UNL1        0.1783
      3 O          60.2680   86.0014    8.5715 O.3     1  UNL1       -0.3267
      4 C          61.1827   87.1102    9.0005 C.3     1  UNL1        0.2296
      5 O          60.7038   88.3798    8.3612 O.3     1  UNL1       -0.3255
      6 C          61.8835   86.0250    9.7628 C.ar    1  UNL1        0.0409
      7 C          61.6404   85.8651   11.2344 C.ar    1  UNL1        0.0022
      8 C          62.3412   84.7799   11.9968 C.ar    1  UNL1        0.0113
      9 C          63.2850   83.8546   11.2876 C.ar    1  UNL1        0.0585
     10 CL         63.9858   82.7693   12.0500 Cl      1  UNL1       -0.0822
     11 C          63.5281   84.0145    9.8160 C.ar    1  UNL1        0.0226
     12 C          62.8273   85.0996    9.0537 C.ar    1  UNL1        0.0591
     13 CL         63.0704   85.2595    7.5822 Cl      1  UNL1       -0.0824
     14 C          58.6923   89.0303    6.7254 C.3     1  UNL1        0.2374
     15 O          59.0856   90.4774    6.6888 O.3     1  UNL1       -0.4727
     16 C          60.9832   92.2006    2.9903 C.ar    1  UNL1        0.0481
     17 C          59.5739   92.5669    3.3504 C.ar    1  UNL1        0.0176
     18 C          58.9414   91.9925    4.5833 C.ar    1  UNL1        0.0382
     19 C          59.7181   91.0518    5.4560 C.ar    1  UNL1        0.1388
     20 C          61.1274   90.6855    5.0958 C.ar    1  UNL1        0.0382
     21 C          61.7599   91.2599    3.8630 C.ar    1  UNL1        0.0176
     22 C          62.8961   94.2507   -3.2857 C.3     1  UNL1        0.0948
     23 C          63.5132   94.4983   -1.9412 C.2     1  UNL1        0.2262
     24 O          64.7629   95.3204   -1.8296 O.2     1  UNL1       -0.2749
     25 N          62.8807   93.9239   -0.7083 N.am    1  UNL1       -0.2760
     26 C          61.6311   93.1018   -0.8200 C.3     1  UNL1        0.1148
     27 C          60.9986   92.5274    0.4129 C.3     1  UNL1        0.1123
     28 N          61.6157   92.7751    1.7574 N.pl3   1  UNL1       -0.3041
     29 C          62.8653   93.5972    1.8690 C.3     1  UNL1        0.1123
     30 C          63.4978   94.1716    0.6362 C.3     1  UNL1        0.1148
     31 C          62.2439   87.9922    9.5889 C.3     1  UNL1        0.1682
     32 N          61.9651   88.7670   10.8426 N.ar    1  UNL1       -0.3025
     33 C          62.9935   89.3379   11.7733 C.ar    1  UNL1        0.0982
     34 C          62.2729   90.0307   12.8917 C.ar    1  UNL1        0.1193
     35 N          60.7990   89.8879   12.6521 N.ar    1  UNL1       -0.2223
     36 C          60.6088   89.1069   11.3857 C.ar    1  UNL1        0.1788
@<TRIPOS>BOND
     1    22    23    1
     2    23    24    2
     3    23    25   am
     4    25    26    1
     5    26    27    1
     6    27    28    1
     7    28    16    1
     8    16    17   ar
     9    17    18   ar
    10    18    19   ar
    11    19    15    1
    12    15    14    1
    13     1    14    1
    14     1     2    1
    15     2     3    1
    16     3     4    1
    17     4    31    1
    18    31    32    1
    19    32    33   ar
    20    33    34   ar
    21    34    35   ar
    22    35    36   ar
    23     4     6    1
    24     6     7   ar
    25     7     8   ar
    26     8     9   ar
    27     9    10    1
    28     9    11   ar
    29    11    12   ar
    30    12    13    1
    31     4     5    1
    32    19    20   ar
    33    20    21   ar
    34    28    29    1
    35    29    30    1
    36    30    25    1
    37    21    16   ar
    38     5     1    1
    39    36    32   ar
    40    12     6   ar
@<TRIPOS>MOLECULE
*****
 36 40 0 0 0
SMALL
GASTEIGER

@<TRIPOS>ATOM
      1 C          63.9406   91.5969   11.0074 C.3     1  UNL1        0.1909
      2 C          63.8249   91.3441   12.4814 C.3     1  UNL1        0.1783
      3 O          65.0935   91.8094   13.1325 O.3     1  UNL1       -0.3267
      4 C          65.9933   92.3498   12.0610 C.3     1  UNL1        0.2296
      5 O          65.2809   92.2185   10.7475 O.3     1  UNL1       -0.3255
      6 C          66.9350   92.6053   13.2001 C.ar    1  UNL1        0.0409
      7 C          66.5015   93.4595   14.3545 C.ar    1  UNL1        0.0022
      8 C          67.4432   93.7150   15.4938 C.ar    1  UNL1        0.0113
      9 C          68.8185   93.1164   15.4786 C.ar    1  UNL1        0.0585
     10 CL         69.7603   93.3719   16.6178 Cl      1  UNL1       -0.0822
     11 C          69.2521   92.2623   14.3242 C.ar    1  UNL1        0.0226
     12 C          68.3104   92.0068   13.1850 C.ar    1  UNL1        0.0591
     13 CL         68.7439   91.1527   12.0307 Cl      1  UNL1       -0.0824
     14 C          62.8991   91.2832    9.9745 C.3     1  UNL1        0.2374
     15 O          61.7021   90.4577   10.3430 O.3     1  UNL1       -0.4727
     16 C          62.2189   86.1447   11.5182 C.ar    1  UNL1        0.0481
     17 C          61.3137   86.5083   10.3788 C.ar    1  UNL1        0.0176
     18 C          61.1414   87.9459    9.9871 C.ar    1  UNL1        0.0382
     19 C          61.8744   89.0200   10.7348 C.ar    1  UNL1        0.1388
     20 C          62.7796   88.6564   11.8742 C.ar    1  UNL1        0.0382
     21 C          62.9519   87.2187   12.2659 C.ar    1  UNL1        0.0176
     22 C          62.8803   79.3223   12.0361 C.3     1  UNL1        0.0948
     23 C          62.9079   80.3940   13.0852 C.2     1  UNL1        0.2262
     24 O          63.1077   80.0281   14.5260 O.2     1  UNL1       -0.2749
     25 N          62.7356   81.8317   12.6934 N.am    1  UNL1       -0.2760
     26 C          62.5358   82.1977   11.2526 C.3     1  UNL1        0.1148
     27 C          62.3635   83.6353   10.8609 C.3     1  UNL1        0.1123
     28 N          62.3911   84.7070   11.9100 N.pl3   1  UNL1       -0.3041
     29 C          62.5910   84.3410   13.3508 C.3     1  UNL1        0.1123
     30 C          62.7632   82.9034   13.7425 C.3     1  UNL1        0.1148
     31 C          67.0901   92.9437   11.2275 C.3     1  UNL1        0.1682
     32 N          66.9130   94.2994   10.6105 N.ar    1  UNL1       -0.3025
     33 C          67.3910   94.7190    9.2521 C.ar    1  UNL1        0.0982
     34 C          67.0003   96.1524    9.0456 C.ar    1  UNL1        0.1193
     35 N          66.2808   96.6187   10.2765 N.ar    1  UNL1       -0.2223
     36 C          66.2269   95.4734   11.2436 C.ar    1  UNL1        0.1788
@<TRIPOS>BOND
     1    22    23    1
     2    23    24    2
     3    23    25   am
     4    25    26    1
     5    26    27    1
     6    27    28    1
     7    28    16    1
     8    16    17   ar
     9    17    18   ar
    10    18    19   ar
    11    19    15    1
    12    15    14    1
    13     1    14    1
    14     1     2    1
    15     2     3    1
    16     3     4    1
    17     4    31    1
    18    31    32    1
    19    32    33   ar
    20    33    34   ar
    21    34    35   ar
    22    35    36   ar
    23     4     6    1
    24     6     7   ar
    25     7     8   ar
    26     8     9   ar
    27     9    10    1
    28     9    11   ar
    29    11    12   ar
    30    12    13    1
    31     4     5    1
    32    19    20   ar
    33    20    21   ar
    34    28    29    1
    35    29    30    1
    36    30    25    1
    37    21    16   ar
    38     5     1    1
    39    36    32   ar
    40    12     6   ar
@<TRIPOS>MOLECULE
*****
 36 40 0 0 0
SMALL
GASTEIGER

@<TRIPOS>ATOM
      1 C          64.3950   91.9936   11.0956 C.3     1  UNL1        0.1909
      2 C          65.1921   93.2642   11.0824 C.3     1  UNL1        0.1783
      3 O          66.1422   93.2275   12.2425 O.3     1  UNL1       -0.3267
      4 C          65.9323   91.9342   12.9728 C.3     1  UNL1        0.2296
      5 O          64.8525   91.1716   12.2640 O.3     1  UNL1       -0.3255
      6 C          67.0156   92.4489   13.8736 C.ar    1  UNL1        0.0409
      7 C          66.6632   93.2832   15.0694 C.ar    1  UNL1        0.0022
      8 C          67.7465   93.7979   15.9703 C.ar    1  UNL1        0.0113
      9 C          69.1821   93.4785   15.6753 C.ar    1  UNL1        0.0585
     10 CL         70.2654   93.9932   16.5762 Cl      1  UNL1       -0.0822
     11 C          69.5344   92.6442   14.4795 C.ar    1  UNL1        0.0226
     12 C          68.4512   92.1295   13.5787 C.ar    1  UNL1        0.0591
     13 CL         68.8035   91.2953   12.3829 Cl      1  UNL1       -0.0824
     14 C          63.3278   91.6120   10.1130 C.3     1  UNL1        0.2374
     15 O          62.1198   90.8523   10.5752 O.3     1  UNL1       -0.4727
     16 C          62.4122   86.4348   11.3812 C.ar    1  UNL1        0.0481
     17 C          63.0131   87.4144   12.3451 C.ar    1  UNL1        0.0176
     18 C          62.9157   88.8869   12.0764 C.ar    1  UNL1        0.0382
     19 C          62.2172   89.3798   10.8439 C.ar    1  UNL1        0.1388
     20 C          61.6163   88.4002    9.8800 C.ar    1  UNL1        0.0382
     21 C          61.7138   86.9277   10.1486 C.ar    1  UNL1        0.0176
     22 C          62.7031   80.0306   13.8615 C.3     1  UNL1        0.0948
     23 C          62.8021   80.5447   12.4559 C.2     1  UNL1        0.2262
     24 O          62.9985   79.5863   11.3189 O.2     1  UNL1       -0.2749
     25 N          62.7046   82.0172   12.1872 N.am    1  UNL1       -0.2760
     26 C          62.5081   82.9757   13.3242 C.3     1  UNL1        0.1148
     27 C          62.4106   84.4482   13.0555 C.3     1  UNL1        0.1123
     28 N          62.5096   84.9623   11.6499 N.pl3   1  UNL1       -0.3041
     29 C          62.7061   84.0038   10.5129 C.3     1  UNL1        0.1123
     30 C          62.8036   82.5313   10.7816 C.3     1  UNL1        0.1148
     31 C          65.9488   90.7485   13.8914 C.3     1  UNL1        0.1682
     32 N          64.8540   90.5659   14.9003 N.ar    1  UNL1       -0.3025
     33 C          64.1134   89.2912   15.1767 C.ar    1  UNL1        0.0982
     34 C          63.1092   89.5635   16.2571 C.ar    1  UNL1        0.1193
     35 N          63.2291   91.0065   16.6484 N.ar    1  UNL1       -0.2223
     36 C          64.3075   91.6261   15.8099 C.ar    1  UNL1        0.1788
@<TRIPOS>BOND
     1    22    23    1
     2    23    24    2
     3    23    25   am
     4    25    26    1
     5    26    27    1
     6    27    28    1
     7    28    16    1
     8    16    17   ar
     9    17    18   ar
    10    18    19   ar
    11    19    15    1
    12    15    14    1
    13     1    14    1
    14     1     2    1
    15     2     3    1
    16     3     4    1
    17     4    31    1
    18    31    32    1
    19    32    33   ar
    20    33    34   ar
    21    34    35   ar
    22    35    36   ar
    23     4     6    1
    24     6     7   ar
    25     7     8   ar
    26     8     9   ar
    27     9    10    1
    28     9    11   ar
    29    11    12   ar
    30    12    13    1
    31     4     5    1
    32    19    20   ar
    33    20    21   ar
    34    28    29    1
    35    29    30    1
    36    30    25    1
    37    21    16   ar
    38     5     1    1
    39    36    32   ar
    40    12     6   ar
@<TRIPOS>MOLECULE
*****
 36 40 0 0 0
SMALL
GASTEIGER

@<TRIPOS>ATOM
      1 C          59.6627   91.7884    4.5345 C.3     1  UNL1        0.1909
      2 C          61.0792   91.3519    4.3046 C.3     1  UNL1        0.1783
      3 O          61.6584   92.2102    3.2193 O.3     1  UNL1       -0.3267
      4 C          60.5997   93.1772    2.7784 C.3     1  UNL1        0.2296
      5 O          59.3663   92.9165    3.5913 O.3     1  UNL1       -0.3255
      6 C          61.6580   93.6612    1.8321 C.ar    1  UNL1        0.0409
      7 C          62.3124   94.9923    2.0559 C.ar    1  UNL1        0.0022
      8 C          63.3707   95.4763    1.1095 C.ar    1  UNL1        0.0113
      9 C          63.7747   94.6293   -0.0606 C.ar    1  UNL1        0.0585
     10 CL         64.8331   95.1133   -1.0070 Cl      1  UNL1       -0.0822
     11 C          63.1204   93.2982   -0.2844 C.ar    1  UNL1        0.0226
     12 C          62.0621   92.8142    0.6619 C.ar    1  UNL1        0.0591
     13 CL         61.4077   91.4831    0.4381 Cl      1  UNL1       -0.0824
     14 C          58.7098   91.2000    5.5325 C.3     1  UNL1        0.2374
     15 O          58.6600   89.7149    5.7368 O.3     1  UNL1       -0.4727
     16 C          60.8609   87.8432    9.1868 C.ar    1  UNL1        0.0481
     17 C          60.1575   86.9749    8.1863 C.ar    1  UNL1        0.0176
     18 C          59.4238   87.5988    7.0363 C.ar    1  UNL1        0.0382
     19 C          59.3937   89.0910    6.8868 C.ar    1  UNL1        0.1388
     20 C          60.0971   89.9593    7.8873 C.ar    1  UNL1        0.0382
     21 C          60.8308   89.3354    9.0373 C.ar    1  UNL1        0.0176
     22 C          64.5227   86.2146   14.7715 C.3     1  UNL1        0.0948
     23 C          63.7954   85.3477   13.7869 C.2     1  UNL1        0.2262
     24 O          63.8018   83.8569   13.9524 O.2     1  UNL1       -0.2749
     25 N          63.0618   85.9716   12.6369 N.am    1  UNL1       -0.2760
     26 C          63.0555   87.4624   12.4715 C.3     1  UNL1        0.1148
     27 C          62.3218   88.0863   11.3214 C.3     1  UNL1        0.1123
     28 N          61.5946   87.2194   10.3369 N.pl3   1  UNL1       -0.3041
     29 C          61.6009   85.7286   10.5023 C.3     1  UNL1        0.1123
     30 C          62.3345   85.1047   11.6523 C.3     1  UNL1        0.1148
     31 C          59.7622   94.2453    2.1398 C.3     1  UNL1        0.1682
     32 N          59.2186   94.0452    0.7562 N.ar    1  UNL1       -0.3025
     33 C          58.3987   92.8785    0.2913 C.ar    1  UNL1        0.0982
     34 C          58.0729   93.0889   -1.1577 C.ar    1  UNL1        0.1193
     35 N          58.6915   94.3858   -1.5883 N.ar    1  UNL1       -0.2223
     36 C          59.3996   94.9768   -0.4054 C.ar    1  UNL1        0.1788
@<TRIPOS>BOND
     1    22    23    1
     2    23    24    2
     3    23    25   am
     4    25    26    1
     5    26    27    1
     6    27    28    1
     7    28    16    1
     8    16    17   ar
     9    17    18   ar
    10    18    19   ar
    11    19    15    1
    12    15    14    1
    13     1    14    1
    14     1     2    1
    15     2     3    1
    16     3     4    1
    17     4    31    1
    18    31    32    1
    19    32    33   ar
    20    33    34   ar
    21    34    35   ar
    22    35    36   ar
    23     4     6    1
    24     6     7   ar
    25     7     8   ar
    26     8     9   ar
    27     9    10    1
    28     9    11   ar
    29    11    12   ar
    30    12    13    1
    31     4     5    1
    32    19    20   ar
    33    20    21   ar
    34    28    29    1
    35    29    30    1
    36    30    25    1
    37    21    16   ar
    38     5     1    1
    39    36    32   ar
    40    12     6   ar
@<TRIPOS>MOLECULE
*****
 36 40 0 0 0
SMALL
GASTEIGER

@<TRIPOS>ATOM
      1 C          60.8281   87.6905    9.8003 C.3     1  UNL1        0.1909
      2 C          60.5634   87.2980   11.2237 C.3     1  UNL1        0.1783
      3 O          61.3612   86.0627   11.5199 O.3     1  UNL1       -0.3267
      4 C          62.1188   85.6918   10.2796 C.3     1  UNL1        0.2296
      5 O          61.7894   86.6978    9.2168 O.3     1  UNL1       -0.3255
      6 C          62.6289   84.5587   11.1197 C.ar    1  UNL1        0.0409
      7 C          62.4604   83.1434   10.6522 C.ar    1  UNL1        0.0022
      8 C          62.9706   82.0103   11.4923 C.ar    1  UNL1        0.0113
      9 C          63.6492   82.2924   12.7999 C.ar    1  UNL1        0.0585
     10 CL         64.1593   81.1593   13.6400 Cl      1  UNL1       -0.0822
     11 C          63.8177   83.7078   13.2674 C.ar    1  UNL1        0.0226
     12 C          63.3076   84.8408   12.4273 C.ar    1  UNL1        0.0591
     13 CL         63.4761   86.2561   12.8947 Cl      1  UNL1       -0.0824
     14 C          60.2355   88.8689    9.0859 C.3     1  UNL1        0.2374
     15 O          60.3249   90.2372    9.6939 O.3     1  UNL1       -0.4727
     16 C          63.8773   91.3478   12.2232 C.ar    1  UNL1        0.0481
     17 C          63.9045   91.5918   10.7434 C.ar    1  UNL1        0.0176
     18 C          62.7204   91.2216    9.9003 C.ar    1  UNL1        0.0382
     19 C          61.5091   90.6074   10.5370 C.ar    1  UNL1        0.1388
     20 C          61.4819   90.3633   12.0167 C.ar    1  UNL1        0.0382
     21 C          62.6660   90.7335   12.8598 C.ar    1  UNL1        0.0176
     22 C          69.0286   91.9456   16.7350 C.3     1  UNL1        0.0948
     23 C          68.6138   92.8285   15.5955 C.2     1  UNL1        0.2262
     24 O          69.3832   94.0816   15.2991 O.2     1  UNL1       -0.2749
     25 N          67.4297   92.4583   14.7524 N.am    1  UNL1       -0.2760
     26 C          66.6604   91.2053   15.0488 C.3     1  UNL1        0.1148
     27 C          65.4762   90.8351   14.2057 C.3     1  UNL1        0.1123
     28 N          65.0614   91.7179   13.0663 N.pl3   1  UNL1       -0.3041
     29 C          65.8308   92.9710   12.7699 C.3     1  UNL1        0.1123
     30 C          67.0149   93.3412   13.6130 C.3     1  UNL1        0.1148
     31 C          62.9832   85.0840    9.2148 C.3     1  UNL1        0.1682
     32 N          62.4289   84.8524    7.8403 N.ar    1  UNL1       -0.3025
     33 C          63.2256   84.5283    6.6115 C.ar    1  UNL1        0.0982
     34 C          62.2697   84.3799    5.4651 C.ar    1  UNL1        0.1193
     35 N          60.8822   84.6122    5.9855 N.ar    1  UNL1       -0.2223
     36 C          60.9806   84.9042    7.4535 C.ar    1  UNL1        0.1788
@<TRIPOS>BOND
     1    22    23    1
     2    23    24    2
     3    23    25   am
     4    25    26    1
     5    26    27    1
     6    27    28    1
     7    28    16    1
     8    16    17   ar
     9    17    18   ar
    10    18    19   ar
    11    19    15    1
    12    15    14    1
    13     1    14    1
    14     1     2    1
    15     2     3    1
    16     3     4    1
    17     4    31    1
    18    31    32    1
    19    32    33   ar
    20    33    34   ar
    21    34    35   ar
    22    35    36   ar
    23     4     6    1
    24     6     7   ar
    25     7     8   ar
    26     8     9   ar
    27     9    10    1
    28     9    11   ar
    29    11    12   ar
    30    12    13    1
    31     4     5    1
    32    19    20   ar
    33    20    21   ar
    34    28    29    1
    35    29    30    1
    36    30    25    1
    37    21    16   ar
    38     5     1    1
    39    36    32   ar
    40    12     6   ar
@<TRIPOS>MOLECULE
*****
 36 40 0 0 0
SMALL
GASTEIGER

@<TRIPOS>ATOM
      1 C          59.9260   88.7643    8.0297 C.3     1  UNL1        0.1909
      2 C          59.8004   89.4421    9.3620 C.3     1  UNL1        0.1783
      3 O          60.7747   88.7983   10.3033 O.3     1  UNL1       -0.3267
      4 C          61.5025   87.7226    9.5529 C.3     1  UNL1        0.2296
      5 O          60.9780   87.7016    8.1477 O.3     1  UNL1       -0.3255
      6 C          62.2101   87.5095   10.8581 C.ar    1  UNL1        0.0409
      7 C          62.2551   86.1416   11.4722 C.ar    1  UNL1        0.0022
      8 C          62.9627   85.9284   12.7775 C.ar    1  UNL1        0.0113
      9 C          63.6254   87.0830   13.4687 C.ar    1  UNL1        0.0585
     10 CL         64.3330   86.8698   14.7741 Cl      1  UNL1       -0.0822
     11 C          63.5804   88.4509   12.8547 C.ar    1  UNL1        0.0226
     12 C          62.8728   88.6640   11.5494 C.ar    1  UNL1        0.0591
     13 CL         62.8278   90.0318   10.9353 Cl      1  UNL1       -0.0824
     14 C          59.1379   89.0918    6.7961 C.3     1  UNL1        0.2374
     15 O          58.8967   90.5232    6.4182 O.3     1  UNL1       -0.4727
     16 C          61.1698   92.3605    2.9965 C.ar    1  UNL1        0.0481
     17 C          59.7494   92.7660    3.2571 C.ar    1  UNL1        0.0176
     18 C          58.9917   92.1536    4.3976 C.ar    1  UNL1        0.0382
     19 C          59.6544   91.1356    5.2776 C.ar    1  UNL1        0.1388
     20 C          61.0748   90.7301    5.0171 C.ar    1  UNL1        0.0382
     21 C          61.8325   91.3425    3.8766 C.ar    1  UNL1        0.0176
     22 C          63.7019   94.6471   -2.9709 C.3     1  UNL1        0.0948
     23 C          64.2005   94.8103   -1.5656 C.2     1  UNL1        0.2262
     24 O          65.4568   95.5859   -1.3009 O.2     1  UNL1       -0.2749
     25 N          63.4428   94.1978   -0.4251 N.am    1  UNL1       -0.2760
     26 C          62.1865   93.4222   -0.6898 C.3     1  UNL1        0.1148
     27 C          61.4288   92.8098    0.4508 C.3     1  UNL1        0.1123
     28 N          61.9275   92.9729    1.8560 N.pl3   1  UNL1       -0.3041
     29 C          63.1838   93.7485    2.1207 C.3     1  UNL1        0.1123
     30 C          63.9414   94.3610    0.9801 C.3     1  UNL1        0.1148
     31 C          62.3783   86.6023    9.0752 C.3     1  UNL1        0.1682
     32 N          61.9271   85.7280    7.9430 N.ar    1  UNL1       -0.3025
     33 C          62.8187   84.9639    7.0098 C.ar    1  UNL1        0.0982
     34 C          61.9477   84.2280    6.0352 C.ar    1  UNL1        0.1193
     35 N          60.5177   84.5373    6.3662 N.ar    1  UNL1       -0.2223
     36 C          60.5050   85.4644    7.5453 C.ar    1  UNL1        0.1788
@<TRIPOS>BOND
     1    22    23    1
     2    23    24    2
     3    23    25   am
     4    25    26    1
     5    26    27    1
     6    27    28    1
     7    28    16    1
     8    16    17   ar
     9    17    18   ar
    10    18    19   ar
    11    19    15    1
    12    15    14    1
    13     1    14    1
    14     1     2    1
    15     2     3    1
    16     3     4    1
    17     4    31    1
    18    31    32    1
    19    32    33   ar
    20    33    34   ar
    21    34    35   ar
    22    35    36   ar
    23     4     6    1
    24     6     7   ar
    25     7     8   ar
    26     8     9   ar
    27     9    10    1
    28     9    11   ar
    29    11    12   ar
    30    12    13    1
    31     4     5    1
    32    19    20   ar
    33    20    21   ar
    34    28    29    1
    35    29    30    1
    36    30    25    1
    37    21    16   ar
    38     5     1    1
    39    36    32   ar
    40    12     6   ar
