@<TRIPOS>MOLECULE
*****
 39 43 0 0 0
SMALL
GASTEIGER

@<TRIPOS>ATOM
      1 C          60.6173   87.9116    8.6104 C.ar    1  UNL1        0.0222
      2 C          60.1242   87.8210    7.1966 C.ar    1  UNL1        0.0032
      3 C          59.3382   88.9520    6.6025 C.ar    1  UNL1        0.0207
      4 C          59.0453   90.1737    7.4222 C.ar    1  UNL1        0.0990
      5 N          59.5384   90.2643    8.8359 N.ar    1  UNL1       -0.2393
      6 C          60.3244   89.1332    9.4300 C.ar    1  UNL1        0.1346
      7 C          60.8175   89.2239   10.8438 C.2     1  UNL1        0.2668
      8 O          60.0935   88.4977   11.9386 O.2     1  UNL1       -0.2683
      9 N          62.0345   90.0406   11.1627 N.am    1  UNL1       -0.2747
     10 C          62.7585   90.7667   10.0679 C.3     1  UNL1        0.0955
     11 C          63.9755   91.5835   10.3869 C.3     1  UNL1        0.0410
     12 C          64.4686   91.6741   11.8006 C.3     1  UNL1        0.0724
     13 C          63.7446   90.9480   12.8954 C.3     1  UNL1        0.0410
     14 C          62.5275   90.1312   12.5764 C.3     1  UNL1        0.0955
     15 N          65.6856   92.4908   12.1196 N.pl3   1  UNL1       -0.3339
     16 H          66.1052   92.4229   13.0076 H       1  UNL1        0.1468
     17 C          66.2634   93.4111   11.0855 C.ar    1  UNL1        0.0447
     18 C          65.8079   94.8385   11.0135 C.ar    1  UNL1        0.0166
     19 C          66.3857   95.7588    9.9794 C.ar    1  UNL1        0.0309
     20 C          67.4189   95.2517    9.0175 C.ar    1  UNL1        0.1402
     21 F          67.9966   96.1720    7.9834 F       1  UNL1       -0.2042
     22 C          67.8743   93.8244    9.0896 C.ar    1  UNL1        0.0309
     23 C          67.2965   92.9041   10.1236 C.ar    1  UNL1        0.0166
     24 C          62.9753   84.5185   10.3927 C.ar    1  UNL1       -0.0061
     25 C          63.1940   84.9138    8.9623 C.ar    1  UNL1       -0.0029
     26 C          62.4080   86.0448    8.3682 C.ar    1  UNL1       -0.0002
     27 C          61.4033   86.7806    9.2045 C.ar    1  UNL1        0.0016
     28 C          61.1846   86.3852   10.6348 C.ar    1  UNL1       -0.0002
     29 C          61.9706   85.2542   11.2289 C.ar    1  UNL1       -0.0029
     30 C          63.7613   83.3875   10.9868 C.3     1  UNL1        0.0992
     31 C          62.8422   83.8456   16.0804 C.3     1  UNL1        0.0186
     32 C          62.8734   83.0084   14.8362 C.3     1  UNL1        0.0702
     33 C          63.3017   83.6165   13.5336 C.3     1  UNL1        0.0882
     34 N          63.3329   82.7793   12.2894 N.3     1  UNL1       -0.2666
     35 C          62.9357   81.3341   12.3477 C.3     1  UNL1        0.0882
     36 C          62.5074   80.7260   13.6503 C.3     1  UNL1        0.0702
     37 C          62.1102   79.2807   13.7086 C.3     1  UNL1        0.0186
     38 N          62.4762   81.5632   14.8945 N.3     1  UNL1       -0.2974
     39 H          63.0975   81.1140   15.5673 H       1  UNL1        0.1232
@<TRIPOS>BOND
     1    32    31    1
     2    32    33    1
     3    33    34    1
     4    34    30    1
     5    30    24    1
     6    24    25   ar
     7    25    26   ar
     8    26    27   ar
     9    27     1    1
    10     1     2   ar
    11     2     3   ar
    12     3     4   ar
    13     4     5   ar
    14     5     6   ar
    15     6     7    1
    16     7     8    2
    17     7     9   am
    18     9    10    1
    19    10    11    1
    20    11    12    1
    21    12    15    1
    22    15    17    1
    23    17    18   ar
    24    18    19   ar
    25    19    20   ar
    26    20    21    1
    27    20    22   ar
    28    22    23   ar
    29    12    13    1
    30    13    14    1
    31    27    28   ar
    32    28    29   ar
    33    34    35    1
    34    35    36    1
    35    36    37    1
    36    36    38    1
    37    38    32    1
    38    29    24   ar
    39     6     1   ar
    40    14     9    1
    41    23    17   ar
    42    15    16    1
    43    38    39    1
@<TRIPOS>MOLECULE
*****
 39 43 0 0 0
SMALL
GASTEIGER

@<TRIPOS>ATOM
      1 C          64.6539   91.0423   13.3108 C.ar    1  UNL1        0.0222
      2 C          65.6062   91.7661   12.4056 C.ar    1  UNL1        0.0032
      3 C          66.7727   92.5102   12.9849 C.ar    1  UNL1        0.0207
      4 C          66.9869   92.5305   14.4695 C.ar    1  UNL1        0.0990
      5 N          66.0346   91.8067   15.3746 N.ar    1  UNL1       -0.2393
      6 C          64.8681   91.0626   14.7953 C.ar    1  UNL1        0.1346
      7 C          63.9158   90.3388   15.7005 C.2     1  UNL1        0.2668
      8 O          62.9575   91.1142   16.5551 O.2     1  UNL1       -0.2683
      9 N          63.9219   88.8397   15.7510 N.am    1  UNL1       -0.2747
     10 C          64.8802   88.0643   14.8963 C.3     1  UNL1        0.0955
     11 C          64.8862   86.5652   14.9468 C.3     1  UNL1        0.0410
     12 C          63.9339   85.8414   15.8520 C.3     1  UNL1        0.0724
     13 C          62.9756   86.6168   16.7067 C.3     1  UNL1        0.0410
     14 C          62.9696   88.1160   16.6561 C.3     1  UNL1        0.0955
     15 N          63.9400   84.3423   15.9026 N.pl3   1  UNL1       -0.3339
     16 H          64.1371   83.8791   16.7486 H       1  UNL1        0.1468
     17 C          63.6457   83.5490   14.6640 C.ar    1  UNL1        0.0447
     18 C          64.5486   83.6582   13.4712 C.ar    1  UNL1        0.0166
     19 C          64.2543   82.8648   12.2327 C.ar    1  UNL1        0.0309
     20 C          63.0572   81.9622   12.1869 C.ar    1  UNL1        0.1402
     21 F          62.7629   81.1689   10.9484 F       1  UNL1       -0.2042
     22 C          62.1543   81.8530   13.3797 C.ar    1  UNL1        0.0309
     23 C          62.4485   82.6464   14.6183 C.ar    1  UNL1        0.0166
     24 C          61.1544   88.8101   11.5728 C.ar    1  UNL1       -0.0061
     25 C          62.4500   88.0965   11.8225 C.ar    1  UNL1       -0.0029
     26 C          63.6165   88.8406   12.4019 C.ar    1  UNL1       -0.0002
     27 C          63.4874   90.2983   12.7315 C.ar    1  UNL1        0.0016
     28 C          62.1919   91.0118   12.4817 C.ar    1  UNL1       -0.0002
     29 C          61.0254   90.2677   11.9024 C.ar    1  UNL1       -0.0029
     30 C          59.9879   88.0660   10.9935 C.3     1  UNL1        0.0992
     31 C          58.9473   89.8126    6.2115 C.3     1  UNL1        0.0186
     32 C          59.3872   88.7054    7.1230 C.3     1  UNL1        0.0702
     33 C          59.4676   88.9393    8.6025 C.3     1  UNL1        0.0882
     34 N          59.9075   87.8321    9.5139 N.3     1  UNL1       -0.2666
     35 C          60.2669   86.4912    8.9460 C.3     1  UNL1        0.0882
     36 C          60.1864   86.2574    7.4665 C.3     1  UNL1        0.0702
     37 C          60.5458   84.9164    6.8985 C.3     1  UNL1        0.0186
     38 N          59.7466   87.3645    6.5551 N.3     1  UNL1       -0.2974
     39 H          58.9238   87.0259    6.0562 H       1  UNL1        0.1232
@<TRIPOS>BOND
     1    32    31    1
     2    32    33    1
     3    33    34    1
     4    34    30    1
     5    30    24    1
     6    24    25   ar
     7    25    26   ar
     8    26    27   ar
     9    27     1    1
    10     1     2   ar
    11     2     3   ar
    12     3     4   ar
    13     4     5   ar
    14     5     6   ar
    15     6     7    1
    16     7     8    2
    17     7     9   am
    18     9    10    1
    19    10    11    1
    20    11    12    1
    21    12    15    1
    22    15    17    1
    23    17    18   ar
    24    18    19   ar
    25    19    20   ar
    26    20    21    1
    27    20    22   ar
    28    22    23   ar
    29    12    13    1
    30    13    14    1
    31    27    28   ar
    32    28    29   ar
    33    34    35    1
    34    35    36    1
    35    36    37    1
    36    36    38    1
    37    38    32    1
    38    29    24   ar
    39     6     1   ar
    40    14     9    1
    41    23    17   ar
    42    15    16    1
    43    38    39    1
@<TRIPOS>MOLECULE
*****
 39 43 0 0 0
SMALL
GASTEIGER

@<TRIPOS>ATOM
      1 C          65.6389   91.7342   13.4672 C.ar    1  UNL1        0.0222
      2 C          66.8635   92.2526   12.7730 C.ar    1  UNL1        0.0032
      3 C          68.0629   92.6631   13.5748 C.ar    1  UNL1        0.0207
      4 C          68.0378   92.5552   15.0708 C.ar    1  UNL1        0.0990
      5 N          66.8133   92.0369   15.7649 N.ar    1  UNL1       -0.2393
      6 C          65.6138   91.6264   14.9631 C.ar    1  UNL1        0.1346
      7 C          64.3893   91.1080   15.6573 C.2     1  UNL1        0.2668
      8 O          63.4532   92.0616   16.3387 O.2     1  UNL1       -0.2683
      9 N          64.1008   89.6361   15.6700 N.am    1  UNL1       -0.2747
     10 C          65.0369   88.6825   14.9885 C.3     1  UNL1        0.0955
     11 C          64.7485   87.2105   15.0012 C.3     1  UNL1        0.0410
     12 C          63.5239   86.6922   15.6954 C.3     1  UNL1        0.0724
     13 C          62.5878   87.6458   16.3769 C.3     1  UNL1        0.0410
     14 C          62.8763   89.1178   16.3641 C.3     1  UNL1        0.0955
     15 N          63.2355   85.2203   15.7081 N.pl3   1  UNL1       -0.3339
     16 H          63.0014   84.7718   16.5527 H       1  UNL1        0.1468
     17 C          63.3036   84.4316   14.4340 C.ar    1  UNL1        0.0447
     18 C          64.0788   83.1484   14.3868 C.ar    1  UNL1        0.0166
     19 C          64.1469   82.3597   13.1126 C.ar    1  UNL1        0.0309
     20 C          63.4398   82.8543   11.8858 C.ar    1  UNL1        0.1402
     21 F          63.5079   82.0657   10.6116 F       1  UNL1       -0.2042
     22 C          62.6645   84.1375   11.9330 C.ar    1  UNL1        0.0309
     23 C          62.5964   84.9262   13.2071 C.ar    1  UNL1        0.0166
     24 C          62.0406   90.5028   11.0619 C.ar    1  UNL1       -0.0061
     25 C          62.1385   90.1272   12.5108 C.ar    1  UNL1       -0.0029
     26 C          63.3379   90.5377   13.3126 C.ar    1  UNL1       -0.0002
     27 C          64.4395   91.3237   12.6654 C.ar    1  UNL1        0.0016
     28 C          64.3416   91.6993   11.2166 C.ar    1  UNL1       -0.0002
     29 C          63.1421   91.2888   10.4148 C.ar    1  UNL1       -0.0029
     30 C          60.8412   90.0923   10.2601 C.3     1  UNL1        0.0992
     31 C          63.2289   85.6740    8.9265 C.3     1  UNL1        0.0186
     32 C          62.0073   86.5445    8.9171 C.3     1  UNL1        0.0702
     33 C          62.0350   87.8831    9.5933 C.3     1  UNL1        0.0882
     34 N          60.8134   88.7536    9.5839 N.3     1  UNL1       -0.2666
     35 C          59.5641   88.2853    8.8984 C.3     1  UNL1        0.0882
     36 C          59.5364   86.9467    8.2223 C.3     1  UNL1        0.0702
     37 C          58.2870   86.4784    7.5367 C.3     1  UNL1        0.0186
     38 N          60.7580   86.0763    8.2316 N.3     1  UNL1       -0.2974
     39 H          61.0040   85.9036    7.2569 H       1  UNL1        0.1232
@<TRIPOS>BOND
     1    32    31    1
     2    32    33    1
     3    33    34    1
     4    34    30    1
     5    30    24    1
     6    24    25   ar
     7    25    26   ar
     8    26    27   ar
     9    27     1    1
    10     1     2   ar
    11     2     3   ar
    12     3     4   ar
    13     4     5   ar
    14     5     6   ar
    15     6     7    1
    16     7     8    2
    17     7     9   am
    18     9    10    1
    19    10    11    1
    20    11    12    1
    21    12    15    1
    22    15    17    1
    23    17    18   ar
    24    18    19   ar
    25    19    20   ar
    26    20    21    1
    27    20    22   ar
    28    22    23   ar
    29    12    13    1
    30    13    14    1
    31    27    28   ar
    32    28    29   ar
    33    34    35    1
    34    35    36    1
    35    36    37    1
    36    36    38    1
    37    38    32    1
    38    29    24   ar
    39     6     1   ar
    40    14     9    1
    41    23    17   ar
    42    15    16    1
    43    38    39    1
