@<TRIPOS>MOLECULE
*****
 65 72 0 0 0
SMALL
GASTEIGER

@<TRIPOS>ATOM
      1 N          65.7732   89.9517   13.9792 N.3     1  UNL1       -0.1862
      2 C          66.2066   88.7794   14.8087 C.3     1  UNL1        0.1775
      3 C          65.4050   87.5117   14.7922 C.2     1  UNL1        0.2452
      4 O          65.8384   86.3394   15.6217 O.2     1  UNL1       -0.2732
      5 N          64.1700   87.4162   13.9463 N.am    1  UNL1       -0.2541
      6 C          63.3684   86.1484   13.9298 C.3     1  UNL1        0.1577
      7 C          62.1335   86.0529   13.0838 C.2     1  UNL1        0.2445
      8 O          61.3319   84.7851   13.0673 O.2     1  UNL1       -0.2731
      9 N          61.7000   87.2251   12.2543 N.am    1  UNL1       -0.2705
     10 C          62.5016   88.4929   12.2708 C.3     1  UNL1        0.1359
     11 C          63.7366   88.5884   13.1168 C.3     1  UNL1        0.1908
     12 N          64.5382   89.8561   13.1333 N.am    1  UNL1       -0.1863
     13 C          64.1048   91.0284   12.3038 C.2     1  UNL1        0.3191
     14 O          62.8698   90.9328   11.4578 O.2     1  UNL1       -0.2512
     15 N          64.9064   92.2961   12.3203 N.am    1  UNL1       -0.2836
     16 H          65.7169   92.3588   12.8755 H       1  UNL1        0.1513
     17 C          66.5748   91.2194   13.9957 C.3     1  UNL1        0.1188
     18 C          67.0369   92.7486   16.0446 C.2     1  UNL1       -0.0034
     19 C          67.4038   91.5670   15.1965 C.2     1  UNL1       -0.0071
     20 C          63.8018   84.9762   14.7592 C.3     1  UNL1        0.0556
     21 C          63.4722   83.5814   14.3166 C.ar    1  UNL1       -0.0198
     22 C          64.3052   82.9119   13.2641 C.ar    1  UNL1       -0.0011
     23 C          63.9755   81.5171   12.8215 C.ar    1  UNL1        0.0363
     24 C          62.8128   80.7918   13.4315 C.ar    1  UNL1        0.1337
     25 O          62.4832   79.3970   12.9889 O.3     1  UNL1       -0.5055
     26 C          61.9797   81.4613   14.4840 C.ar    1  UNL1        0.0363
     27 C          62.3094   82.8561   14.9266 C.ar    1  UNL1       -0.0011
     28 H          63.0035   78.9788   12.3314 H       1  UNL1        0.2922
     29 C          60.4651   87.1296   11.4084 C.3     1  UNL1        0.1217
     30 C          60.5734   87.1899    9.9134 C.ar    1  UNL1        0.0135
     31 C          61.0303   85.9851    9.1454 C.ar    1  UNL1       -0.0012
     32 C          61.1387   86.0453    7.6506 C.ar    1  UNL1       -0.0002
     33 C          60.7902   87.3103    6.9238 C.ar    1  UNL1        0.0016
     34 C          60.3333   88.5151    7.6918 C.ar    1  UNL1        0.0214
     35 C          59.9246   89.8898    7.2525 C.ar    1  UNL1        0.0722
     36 C          59.5636   90.6792    8.4758 C.ar    1  UNL1        0.0805
     37 N          59.7492   89.7923    9.6711 N.ar    1  UNL1       -0.3241
     38 C          59.5025   90.1757   11.1002 C.3     1  UNL1        0.1305
     39 C          60.2249   88.4548    9.1866 C.ar    1  UNL1        0.0577
     40 C          59.8840   90.3878    5.8380 C.2     1  UNL1        0.2511
     41 O          58.7101   90.0636    4.9622 O.2     1  UNL1       -0.2698
     42 N          61.0172   91.2098    5.2995 N.am    1  UNL1       -0.2779
     43 H          61.7876   91.4225    5.8743 H       1  UNL1        0.1553
     44 C          60.9767   91.7077    3.8851 C.ar    1  UNL1        0.0895
     45 C          62.1749   91.5439    2.9978 C.ar    1  UNL1        0.1180
     46 N          62.1345   92.0418    1.5834 N.ar    1  UNL1       -0.2108
     47 C          60.8958   92.7035    1.0564 C.ar    1  UNL1        0.2204
     48 N          59.6975   92.8674    1.9438 N.ar    1  UNL1       -0.2108
     49 C          59.7380   92.3694    3.3581 C.ar    1  UNL1        0.1180
     50 N          60.8552   93.2015   -0.3579 N.pl3   1  UNL1       -0.2753
     51 C          59.6195   93.0082   -1.1860 C.3     1  UNL1        0.1109
     52 C          59.5788   93.5061   -2.6003 C.3     1  UNL1        0.0939
     53 N          60.7740   94.1974   -3.1867 N.3     1  UNL1       -0.2711
     54 C          62.0097   94.3907   -2.3587 C.3     1  UNL1        0.0939
     55 C          62.0504   93.8927   -0.9443 C.3     1  UNL1        0.1109
     56 C          60.7334   94.6953   -4.6010 C.3     1  UNL1        0.0577
     57 C          62.0081   95.0476   -5.3089 C.3     1  UNL1        0.0173
     58 C          59.4183   94.8410   -5.3075 C.3     1  UNL1        0.0173
     59 C          64.4730   93.4683   11.4908 C.3     1  UNL1        0.1177
     60 C          65.4713   94.1937   10.6380 C.ar    1  UNL1       -0.0025
     61 C          66.5241   93.4243    9.8968 C.ar    1  UNL1       -0.0026
     62 C          67.5224   94.1497    9.0440 C.ar    1  UNL1       -0.0003
     63 C          67.4679   95.6445    8.9325 C.ar    1  UNL1       -0.0000
     64 C          66.4150   96.4140    9.6738 C.ar    1  UNL1       -0.0003
     65 C          65.4167   95.6886   10.5266 C.ar    1  UNL1       -0.0026
@<TRIPOS>BOND
     1    18    19    2
     2    19    17    1
     3    17     1    1
     4     1     2    1
     5     2     3    1
     6     3     4    2
     7     3     5   am
     8     5     6    1
     9     6    20    1
    10    20    21    1
    11    21    22   ar
    12    22    23   ar
    13    23    24   ar
    14    24    25    1
    15    24    26   ar
    16    26    27   ar
    17     6     7    1
    18     7     8    2
    19     7     9   am
    20     9    29    1
    21    29    30    1
    22    30    31   ar
    23    31    32   ar
    24    32    33   ar
    25    33    34   ar
    26    34    35   ar
    27    35    40    1
    28    40    41    2
    29    40    42   am
    30    42    44    1
    31    44    45   ar
    32    45    46   ar
    33    46    47   ar
    34    47    50    1
    35    50    51    1
    36    51    52    1
    37    52    53    1
    38    53    56    1
    39    56    57    1
    40    56    58    1
    41    53    54    1
    42    54    55    1
    43    47    48   ar
    44    48    49   ar
    45    35    36   ar
    46    36    37   ar
    47    37    38    1
    48    37    39   ar
    49     9    10    1
    50    11    10    1
    51    11    12    1
    52    12    13   am
    53    13    14    2
    54    13    15   am
    55    15    59    1
    56    59    60    1
    57    60    61   ar
    58    61    62   ar
    59    62    63   ar
    60    63    64   ar
    61    64    65   ar
    62    12     1    1
    63    65    60   ar
    64    11     5    1
    65    27    21   ar
    66    39    30   ar
    67    39    34   ar
    68    49    44   ar
    69    55    50    1
    70    25    28    1
    71    42    43    1
    72    15    16    1
@<TRIPOS>MOLECULE
*****
 65 72 0 0 0
SMALL
GASTEIGER

@<TRIPOS>ATOM
      1 N          64.7041   83.2559   13.0869 N.3     1  UNL1       -0.1862
      2 C          65.4287   84.1842   14.0160 C.3     1  UNL1        0.1775
      3 C          64.9486   85.5943   14.1924 C.2     1  UNL1        0.2452
      4 O          65.6733   86.5226   15.1216 O.2     1  UNL1       -0.2732
      5 N          63.7439   86.0761   13.4397 N.am    1  UNL1       -0.2541
      6 C          63.2638   87.4862   13.6162 C.3     1  UNL1        0.1577
      7 C          62.0592   87.9681   12.8635 C.2     1  UNL1        0.2445
      8 O          61.5791   89.3782   13.0399 O.2     1  UNL1       -0.2731
      9 N          61.3345   87.0398   11.9343 N.am    1  UNL1       -0.2705
     10 C          61.8146   85.6297   11.7579 C.3     1  UNL1        0.1359
     11 C          63.0194   85.1479   12.5106 C.3     1  UNL1        0.1908
     12 N          63.4994   83.7378   12.3342 N.am    1  UNL1       -0.1863
     13 C          62.7748   82.8095   11.4051 C.2     1  UNL1        0.3191
     14 O          61.5701   83.2913   10.6524 O.2     1  UNL1       -0.2512
     15 N          63.2549   81.3994   11.2286 N.am    1  UNL1       -0.2836
     16 H          64.0456   81.0831   11.7226 H       1  UNL1        0.1513
     17 C          65.1842   81.8458   12.9104 C.3     1  UNL1        0.1188
     18 C          63.2576   80.6896   14.2147 C.2     1  UNL1       -0.0034
     19 C          64.7079   80.7695   13.8402 C.2     1  UNL1       -0.0071
     20 C          63.9884   88.4145   14.5453 C.3     1  UNL1        0.0556
     21 C          64.4928   89.7350   14.0434 C.ar    1  UNL1       -0.0198
     22 C          65.3956   90.5689   14.9033 C.ar    1  UNL1       -0.0011
     23 C          65.9000   91.8894   14.4015 C.ar    1  UNL1        0.0363
     24 C          65.5015   92.3760   13.0398 C.ar    1  UNL1        0.1337
     25 O          66.0059   93.6966   12.5380 O.3     1  UNL1       -0.5055
     26 C          64.5987   91.5422   12.1798 C.ar    1  UNL1        0.0363
     27 C          64.0943   90.2216   12.6816 C.ar    1  UNL1       -0.0011
     28 H          66.5699   94.2175   13.0751 H       1  UNL1        0.2922
     29 C          60.1299   87.5216   11.1817 C.3     1  UNL1        0.1217
     30 C          60.1333   87.5219    9.6816 C.ar    1  UNL1        0.0135
     31 C          60.2819   86.2313    8.9318 C.ar    1  UNL1       -0.0012
     32 C          60.2853   86.2315    7.4318 C.ar    1  UNL1       -0.0002
     33 C          60.1402   87.5223    6.6817 C.ar    1  UNL1        0.0016
     34 C          59.9915   88.8129    7.4316 C.ar    1  UNL1        0.0214
     35 C          59.8313   90.2304    6.9679 C.ar    1  UNL1        0.0722
     36 C          59.7288   91.1062    8.1813 C.ar    1  UNL1        0.0805
     37 N          59.8257   90.2301    9.3949 N.ar    1  UNL1       -0.3241
     38 C          59.7700   90.6904   10.8214 C.3     1  UNL1        0.1305
     39 C          59.9881   88.8127    8.9315 C.ar    1  UNL1        0.0577
     40 C          59.7821   90.6912    5.5412 C.2     1  UNL1        0.2511
     41 O          58.5565   90.4399    4.7137 O.2     1  UNL1       -0.2698
     42 N          60.9585   91.4032    4.9421 N.am    1  UNL1       -0.2779
     43 H          61.7629   91.5682    5.4852 H       1  UNL1        0.1553
     44 C          60.9095   91.8640    3.5155 C.ar    1  UNL1        0.0895
     45 C          62.0938   91.6555    2.6189 C.ar    1  UNL1        0.1180
     46 N          62.0448   92.1162    1.1923 N.ar    1  UNL1       -0.2108
     47 C          60.8115   92.7855    0.6622 C.ar    1  UNL1        0.2204
     48 N          59.6272   92.9941    1.5588 N.ar    1  UNL1       -0.2108
     49 C          59.6761   92.5333    2.9855 C.ar    1  UNL1        0.1180
     50 N          60.7624   93.2463   -0.7644 N.pl3   1  UNL1       -0.2753
     51 C          59.4433   93.5587   -1.4067 C.3     1  UNL1        0.1109
     52 C          59.3941   94.0195   -2.8333 C.3     1  UNL1        0.0939
     53 N          60.6641   94.1679   -3.6177 N.3     1  UNL1       -0.2711
     54 C          61.9832   93.8556   -2.9754 C.3     1  UNL1        0.0939
     55 C          62.0323   93.3948   -1.5487 C.3     1  UNL1        0.1109
     56 C          60.6150   94.6287   -5.0443 C.3     1  UNL1        0.0577
     57 C          59.3332   94.5376   -5.8181 C.3     1  UNL1        0.0173
     58 C          61.8476   95.1806   -5.6971 C.3     1  UNL1        0.0173
     59 C          62.5303   80.4711   10.2995 C.3     1  UNL1        0.1177
     60 C          63.0091   79.0604   10.1247 C.ar    1  UNL1       -0.0025
     61 C          63.9681   78.7251    9.0212 C.ar    1  UNL1       -0.0026
     62 C          64.4469   77.3144    8.8464 C.ar    1  UNL1       -0.0003
     63 C          63.9667   76.2389    9.7752 C.ar    1  UNL1       -0.0000
     64 C          63.0076   76.5741   10.8788 C.ar    1  UNL1       -0.0003
     65 C          62.5288   77.9848   11.0535 C.ar    1  UNL1       -0.0026
@<TRIPOS>BOND
     1    18    19    2
     2    19    17    1
     3    17     1    1
     4     1     2    1
     5     2     3    1
     6     3     4    2
     7     3     5   am
     8     5     6    1
     9     6    20    1
    10    20    21    1
    11    21    22   ar
    12    22    23   ar
    13    23    24   ar
    14    24    25    1
    15    24    26   ar
    16    26    27   ar
    17     6     7    1
    18     7     8    2
    19     7     9   am
    20     9    29    1
    21    29    30    1
    22    30    31   ar
    23    31    32   ar
    24    32    33   ar
    25    33    34   ar
    26    34    35   ar
    27    35    40    1
    28    40    41    2
    29    40    42   am
    30    42    44    1
    31    44    45   ar
    32    45    46   ar
    33    46    47   ar
    34    47    50    1
    35    50    51    1
    36    51    52    1
    37    52    53    1
    38    53    56    1
    39    56    57    1
    40    56    58    1
    41    53    54    1
    42    54    55    1
    43    47    48   ar
    44    48    49   ar
    45    35    36   ar
    46    36    37   ar
    47    37    38    1
    48    37    39   ar
    49     9    10    1
    50    11    10    1
    51    11    12    1
    52    12    13   am
    53    13    14    2
    54    13    15   am
    55    15    59    1
    56    59    60    1
    57    60    61   ar
    58    61    62   ar
    59    62    63   ar
    60    63    64   ar
    61    64    65   ar
    62    12     1    1
    63    65    60   ar
    64    11     5    1
    65    27    21   ar
    66    39    30   ar
    67    39    34   ar
    68    49    44   ar
    69    55    50    1
    70    25    28    1
    71    42    43    1
    72    15    16    1
