@<TRIPOS>MOLECULE
*****
 43 46 0 0 0
SMALL
GASTEIGER

@<TRIPOS>ATOM
      1 C          62.1416   87.8604   10.3661 C.3     1  UNL1        0.1678
      2 C          62.3774   89.0771   11.2112 C.2     1  UNL1        0.2492
      3 O          62.1153   89.6590   10.7337 O.2     1  UNL1       -0.2727
      4 N          62.9567   89.1583   12.5924 N.am    1  UNL1       -0.2517
      5 C          63.4430   88.0431   13.4698 C.ar    1  UNL1        0.0679
      6 C          63.9493   88.5604   14.7836 C.ar    1  UNL1        0.0162
      7 C          64.4828   87.6057   15.8101 C.ar    1  UNL1        0.0014
      8 C          64.5100   86.1337   15.5229 C.ar    1  UNL1        0.0014
      9 C          64.0038   85.6164   14.2091 C.ar    1  UNL1        0.0162
     10 C          63.4703   86.5711   13.1826 C.ar    1  UNL1        0.0676
     11 N          63.0179   85.8508   11.9470 N.am    1  UNL1       -0.2556
     12 C          63.1781   84.3595   11.9677 C.2     1  UNL1        0.2535
     13 O          62.7565   83.5434   10.7817 O.2     1  UNL1       -0.2726
     14 C          62.4266   86.4245   10.6935 C.3     1  UNL1        0.1067
     15 C          62.0736   85.4312    9.6265 C.3     1  UNL1        0.0242
     16 C          60.0681   88.3628    8.8835 C.2     1  UNL1        0.2371
     17 O          59.1951   88.3602   10.1034 O.2     1  UNL1       -0.2737
     18 N          61.5412   88.1129    9.0149 N.am    1  UNL1       -0.2959
     19 H          62.1141   88.1147    8.2142 H       1  UNL1        0.1499
     20 C          59.4678   88.6154    7.5323 C.3     1  UNL1        0.1316
     21 C          58.6791   87.5379    6.8486 C.3     1  UNL1        0.0270
     22 C          58.7100   90.3838    5.7863 C.3     1  UNL1        0.0862
     23 N          59.6560   89.9453    6.8646 N.3     1  UNL1       -0.2902
     24 H          59.6134   90.6520    7.5989 H       1  UNL1        0.1237
     25 C          63.0637   90.5372   13.1732 C.3     1  UNL1        0.1278
     26 C          64.3671   91.2772   13.1131 C.ar    1  UNL1        0.0320
     27 C          65.0097   91.5579   11.7872 C.ar    1  UNL1        0.1363
     28 C          66.3130   92.2979   11.7270 C.ar    1  UNL1        0.0366
     29 C          66.9738   92.7573   12.9929 C.ar    1  UNL1        0.0036
     30 C          66.3311   92.4766   14.3189 C.ar    1  UNL1        0.0062
     31 C          66.9918   92.9359   15.5848 C.ar    1  UNL1        0.0345
     32 BR         68.2952   93.6759   15.5247 Br      1  UNL1       -0.0490
     33 C          66.3492   92.6552   16.9108 C.ar    1  UNL1        0.0067
     34 C          65.0459   91.9152   16.9708 C.ar    1  UNL1        0.0005
     35 C          64.3851   91.4558   15.7050 C.ar    1  UNL1       -0.0001
     36 C          65.0278   91.7365   14.3790 C.ar    1  UNL1        0.0010
     37 O          64.3490   91.0986   10.5213 O.3     1  UNL1       -0.4717
     38 C          63.4766   92.0409    9.7459 C.3     1  UNL1        0.2525
     39 C          63.7598   83.6843   13.1742 C.3     1  UNL1        0.2357
     40 S          63.4163   82.2548   13.4722 S.O2    1  UNL1        0.0007
     41 C          63.0730   80.8255   13.7701 C.3     1  UNL1        0.1766
     42 O          62.2175   82.7057   14.2529 O.2     1  UNL1       -0.1725
     43 O          64.6152   81.8041   12.6914 O.2     1  UNL1       -0.1725
@<TRIPOS>BOND
     1    22    23    1
     2    23    20    1
     3    20    21    1
     4    20    16    1
     5    16    17    2
     6    16    18   am
     7     1    18    1
     8     1     2    1
     9     2     3    2
    10     2     4   am
    11     4    25    1
    12    25    26    1
    13    26    27   ar
    14    27    37    1
    15    37    38    1
    16    27    28   ar
    17    28    29   ar
    18    29    30   ar
    19    30    31   ar
    20    31    32    1
    21    31    33   ar
    22    33    34   ar
    23    34    35   ar
    24    35    36   ar
    25     4     5    1
    26     5     6   ar
    27     6     7   ar
    28     7     8   ar
    29     8     9   ar
    30     9    10   ar
    31    10    11    1
    32    11    12   am
    33    12    13    2
    34    12    39    1
    35    39    40    1
    36    40    41    1
    37    40    42    2
    38    40    43    2
    39    11    14    1
    40    14    15    1
    41    14     1    1
    42    36    26   ar
    43    10     5   ar
    44    36    30   ar
    45    23    24    1
    46    18    19    1
@<TRIPOS>MOLECULE
*****
 43 46 0 0 0
SMALL
GASTEIGER

@<TRIPOS>ATOM
      1 C          63.7204   89.8892   11.9006 C.3     1  UNL1        0.1678
      2 C          64.1340   89.1944   13.1640 C.2     1  UNL1        0.2492
      3 O          63.7386   88.5048   13.1063 O.2     1  UNL1       -0.2727
      4 N          65.0532   89.6850   14.2431 N.am    1  UNL1       -0.2517
      5 C          65.7857   90.9914   14.3255 C.ar    1  UNL1        0.0679
      6 C          66.6039   91.0829   15.5793 C.ar    1  UNL1        0.0162
      7 C          67.4164   92.3129   15.8566 C.ar    1  UNL1        0.0014
      8 C          67.4107   93.4514   14.8800 C.ar    1  UNL1        0.0014
      9 C          66.5925   93.3600   13.6262 C.ar    1  UNL1        0.0162
     10 C          65.7800   92.1299   13.3489 C.ar    1  UNL1        0.0676
     11 N          65.0404   92.2432   12.0488 N.am    1  UNL1       -0.2556
     12 C          65.2443   93.5230   11.2935 C.2     1  UNL1        0.2535
     13 O          64.5503   93.7382    9.9812 O.2     1  UNL1       -0.2726
     14 C          64.1238   91.2461   11.4042 C.3     1  UNL1        0.1067
     15 C          63.5323   91.6605   10.0896 C.3     1  UNL1        0.0242
     16 C          61.3101   89.1125   11.3202 C.2     1  UNL1        0.2371
     17 O          60.7827   89.8617   12.5079 O.2     1  UNL1       -0.2737
     18 N          62.7790   89.1263   11.0166 N.am    1  UNL1       -0.2959
     19 H          63.1251   88.6345   10.2371 H       1  UNL1        0.1499
     20 C          60.3686   88.3495   10.4362 C.3     1  UNL1        0.1316
     21 C          59.6487   89.0524    9.3236 C.3     1  UNL1        0.0270
     22 C          61.3208   85.9657   10.8370 C.3     1  UNL1        0.0862
     23 N          60.1471   86.8837   10.6646 N.3     1  UNL1       -0.2902
     24 H          59.5810   86.7995   11.5089 H       1  UNL1        0.1237
     25 C          65.2683   88.7448   15.3919 C.3     1  UNL1        0.1278
     26 C          64.1914   87.7749   15.7791 C.ar    1  UNL1        0.0320
     27 C          63.0849   88.2088   16.6941 C.ar    1  UNL1        0.1363
     28 C          62.0081   87.2390   17.0813 C.ar    1  UNL1        0.0366
     29 C          62.0378   85.8353   16.5534 C.ar    1  UNL1        0.0036
     30 C          63.1443   85.4015   15.6383 C.ar    1  UNL1        0.0062
     31 C          63.1739   83.9977   15.1104 C.ar    1  UNL1        0.0345
     32 BR         62.0971   83.0279   15.4975 Br      1  UNL1       -0.0490
     33 C          64.2805   83.5638   14.1953 C.ar    1  UNL1        0.0067
     34 C          65.3573   84.5336   13.8082 C.ar    1  UNL1        0.0005
     35 C          65.3276   85.9374   14.3361 C.ar    1  UNL1       -0.0001
     36 C          64.2211   86.3712   15.2512 C.ar    1  UNL1        0.0010
     37 O          63.0553   89.6125   17.2221 O.3     1  UNL1       -0.4717
     38 C          62.9166   90.7674   16.2749 C.3     1  UNL1        0.2525
     39 C          66.1423   94.5878   11.8504 C.3     1  UNL1        0.2357
     40 S          66.5922   95.7216   10.9773 S.O2    1  UNL1        0.0007
     41 C          67.0419   96.8554   10.1045 C.3     1  UNL1        0.1766
     42 O          67.4903   94.7854   10.2244 O.2     1  UNL1       -0.1725
     43 O          65.6939   96.6576   11.7304 O.2     1  UNL1       -0.1725
@<TRIPOS>BOND
     1    22    23    1
     2    23    20    1
     3    20    21    1
     4    20    16    1
     5    16    17    2
     6    16    18   am
     7     1    18    1
     8     1     2    1
     9     2     3    2
    10     2     4   am
    11     4    25    1
    12    25    26    1
    13    26    27   ar
    14    27    37    1
    15    37    38    1
    16    27    28   ar
    17    28    29   ar
    18    29    30   ar
    19    30    31   ar
    20    31    32    1
    21    31    33   ar
    22    33    34   ar
    23    34    35   ar
    24    35    36   ar
    25     4     5    1
    26     5     6   ar
    27     6     7   ar
    28     7     8   ar
    29     8     9   ar
    30     9    10   ar
    31    10    11    1
    32    11    12   am
    33    12    13    2
    34    12    39    1
    35    39    40    1
    36    40    41    1
    37    40    42    2
    38    40    43    2
    39    11    14    1
    40    14    15    1
    41    14     1    1
    42    36    26   ar
    43    10     5   ar
    44    36    30   ar
    45    23    24    1
    46    18    19    1
@<TRIPOS>MOLECULE
*****
 43 46 0 0 0
SMALL
GASTEIGER

@<TRIPOS>ATOM
      1 C          62.2188   87.3028   10.3387 C.3     1  UNL1        0.1678
      2 C          62.2991   88.3535   11.4063 C.2     1  UNL1        0.2492
      3 O          61.9908   88.9870   11.0334 O.2     1  UNL1       -0.2727
      4 N          62.8253   88.2270   12.8052 N.am    1  UNL1       -0.2517
      5 C          63.4012   87.0187   13.4822 C.ar    1  UNL1        0.0679
      6 C          63.8106   87.3237   14.8926 C.ar    1  UNL1        0.0162
      7 C          64.4119   86.2483   15.7482 C.ar    1  UNL1        0.0014
      8 C          64.6038   84.8680   15.1933 C.ar    1  UNL1        0.0014
      9 C          64.1944   84.5630   13.7829 C.ar    1  UNL1        0.0162
     10 C          63.5931   85.6383   12.9274 C.ar    1  UNL1        0.0676
     11 N          63.2565   85.1255   11.5585 N.am    1  UNL1       -0.2556
     12 C          63.5734   83.6808   11.3087 C.2     1  UNL1        0.2535
     13 O          63.2761   83.0679    9.9722 O.2     1  UNL1       -0.2726
     14 C          62.6448   85.8662   10.4064 C.3     1  UNL1        0.1067
     15 C          62.4310   85.0643    9.1570 C.3     1  UNL1        0.0242
     16 C          60.1621   88.0058    8.9154 C.2     1  UNL1        0.2371
     17 O          59.2725   87.8192   10.1087 O.2     1  UNL1       -0.2737
     18 N          61.6352   87.7476    9.0304 N.am    1  UNL1       -0.2959
     19 H          62.2190   87.8700    8.2473 H       1  UNL1        0.1499
     20 C          59.5785   88.4505    7.6071 C.3     1  UNL1        0.1316
     21 C          58.7716   87.4927    6.7815 C.3     1  UNL1        0.0270
     22 C          59.1825   90.3107    5.8372 C.3     1  UNL1        0.0862
     23 N          59.8019   89.8530    7.1244 N.3     1  UNL1       -0.2902
     24 H          59.4556   90.4746    7.8552 H       1  UNL1        0.1237
     25 C          62.7681   89.4738   13.6373 C.3     1  UNL1        0.1278
     26 C          63.9372   90.4133   13.6620 C.ar    1  UNL1        0.0320
     27 C          64.7792   90.5305   14.8977 C.ar    1  UNL1        0.1363
     28 C          65.9482   91.4700   14.9225 C.ar    1  UNL1        0.0366
     29 C          66.2752   92.2923   13.7114 C.ar    1  UNL1        0.0036
     30 C          65.4332   92.1751   12.4756 C.ar    1  UNL1        0.0062
     31 C          65.7603   92.9975   11.2645 C.ar    1  UNL1        0.0345
     32 BR         66.9294   93.9370   11.2892 Br      1  UNL1       -0.0490
     33 C          64.9182   92.8803   10.0286 C.ar    1  UNL1        0.0067
     34 C          63.7492   91.9408   10.0040 C.ar    1  UNL1        0.0005
     35 C          63.4221   91.1184   11.2150 C.ar    1  UNL1       -0.0001
     36 C          64.2642   91.2356   12.4509 C.ar    1  UNL1        0.0010
     37 O          64.4522   89.7081   16.1089 O.3     1  UNL1       -0.4717
     38 C          63.1962   89.9793   16.8829 C.3     1  UNL1        0.2525
     39 C          64.1876   82.8488   12.3954 C.3     1  UNL1        0.2357
     40 S          63.4542   81.6552   12.9314 S.O2    1  UNL1        0.0007
     41 C          62.7207   80.4617   13.4673 C.3     1  UNL1        0.1766
     42 O          64.7445   81.0975   13.4550 O.2     1  UNL1       -0.1725
     43 O          62.1640   82.2130   12.4078 O.2     1  UNL1       -0.1725
@<TRIPOS>BOND
     1    22    23    1
     2    23    20    1
     3    20    21    1
     4    20    16    1
     5    16    17    2
     6    16    18   am
     7     1    18    1
     8     1     2    1
     9     2     3    2
    10     2     4   am
    11     4    25    1
    12    25    26    1
    13    26    27   ar
    14    27    37    1
    15    37    38    1
    16    27    28   ar
    17    28    29   ar
    18    29    30   ar
    19    30    31   ar
    20    31    32    1
    21    31    33   ar
    22    33    34   ar
    23    34    35   ar
    24    35    36   ar
    25     4     5    1
    26     5     6   ar
    27     6     7   ar
    28     7     8   ar
    29     8     9   ar
    30     9    10   ar
    31    10    11    1
    32    11    12   am
    33    12    13    2
    34    12    39    1
    35    39    40    1
    36    40    41    1
    37    40    42    2
    38    40    43    2
    39    11    14    1
    40    14    15    1
    41    14     1    1
    42    36    26   ar
    43    10     5   ar
    44    36    30   ar
    45    23    24    1
    46    18    19    1
@<TRIPOS>MOLECULE
*****
 43 46 0 0 0
SMALL
GASTEIGER

@<TRIPOS>ATOM
      1 C          63.2683   85.8768   12.1879 C.3     1  UNL1        0.1678
      2 C          62.8692   87.2418   12.6648 C.2     1  UNL1        0.2492
      3 O          63.1717   87.2504   13.4022 O.2     1  UNL1       -0.2727
      4 N          62.1012   88.3012   11.9314 N.am    1  UNL1       -0.2517
      5 C          61.5426   88.2572   10.5400 C.ar    1  UNL1        0.0679
      6 C          60.8388   89.5351   10.1914 C.ar    1  UNL1        0.0162
      7 C          60.2064   89.6988    8.8411 C.ar    1  UNL1        0.0014
      8 C          60.2778   88.5845    7.8395 C.ar    1  UNL1        0.0014
      9 C          60.9816   87.3066    8.1881 C.ar    1  UNL1        0.0162
     10 C          61.6139   87.1430    9.5383 C.ar    1  UNL1        0.0676
     11 N          62.2616   85.7975    9.6807 N.am    1  UNL1       -0.2556
     12 C          62.1596   84.8964    8.4859 C.2     1  UNL1        0.2535
     13 O          62.7736   83.5283    8.5237 O.2     1  UNL1       -0.2726
     14 C          62.9979   85.2339   10.8599 C.3     1  UNL1        0.1067
     15 C          63.5347   83.8439   10.6883 C.3     1  UNL1        0.0242
     16 C          63.3123   84.2358   14.2017 C.2     1  UNL1        0.2371
     17 O          61.8133   84.2595   14.2538 O.2     1  UNL1       -0.2737
     18 N          64.0397   85.0445   13.1688 N.am    1  UNL1       -0.2959
     19 H          65.0235   85.0289   13.1346 H       1  UNL1        0.1499
     20 C          64.0837   83.4035   15.1826 C.3     1  UNL1        0.1316
     21 C          64.6188   84.0269   16.4376 C.3     1  UNL1        0.0270
     22 C          63.7233   81.3075   13.6903 C.3     1  UNL1        0.0862
     23 N          64.3201   81.9479   14.9084 N.3     1  UNL1       -0.2902
     24 H          65.3301   81.8208   14.8430 H       1  UNL1        0.1237
     25 C          61.8600   89.5727   12.6897 C.3     1  UNL1        0.1278
     26 C          63.0147   90.3189   13.2896 C.ar    1  UNL1        0.0320
     27 C          63.3018   90.2023   14.7572 C.ar    1  UNL1        0.1363
     28 C          64.4565   90.9484   15.3572 C.ar    1  UNL1        0.0366
     29 C          65.3242   91.8110   14.4894 C.ar    1  UNL1        0.0036
     30 C          65.0371   91.9276   13.0218 C.ar    1  UNL1        0.0062
     31 C          65.9047   92.7903   12.1541 C.ar    1  UNL1        0.0345
     32 BR         67.0595   93.5364   12.7540 Br      1  UNL1       -0.0490
     33 C          65.6177   92.9069   10.6864 C.ar    1  UNL1        0.0067
     34 C          64.4630   92.1608   10.0865 C.ar    1  UNL1        0.0005
     35 C          63.5953   91.2981   10.9542 C.ar    1  UNL1       -0.0001
     36 C          63.8824   91.1816   12.4219 C.ar    1  UNL1        0.0010
     37 O          62.4341   89.3396   15.6249 O.3     1  UNL1       -0.4717
     38 C          63.0124   88.6752   16.8392 C.3     1  UNL1        0.2525
     39 C          61.4434   85.3632    7.2533 C.3     1  UNL1        0.2357
     40 S          61.5715   84.5911    5.9737 S.O2    1  UNL1        0.0007
     41 C          61.6995   83.8189    4.6942 C.3     1  UNL1        0.1766
     42 O          63.0129   84.9944    5.8747 O.2     1  UNL1       -0.1725
     43 O          60.1301   84.1878    6.0729 O.2     1  UNL1       -0.1725
@<TRIPOS>BOND
     1    22    23    1
     2    23    20    1
     3    20    21    1
     4    20    16    1
     5    16    17    2
     6    16    18   am
     7     1    18    1
     8     1     2    1
     9     2     3    2
    10     2     4   am
    11     4    25    1
    12    25    26    1
    13    26    27   ar
    14    27    37    1
    15    37    38    1
    16    27    28   ar
    17    28    29   ar
    18    29    30   ar
    19    30    31   ar
    20    31    32    1
    21    31    33   ar
    22    33    34   ar
    23    34    35   ar
    24    35    36   ar
    25     4     5    1
    26     5     6   ar
    27     6     7   ar
    28     7     8   ar
    29     8     9   ar
    30     9    10   ar
    31    10    11    1
    32    11    12   am
    33    12    13    2
    34    12    39    1
    35    39    40    1
    36    40    41    1
    37    40    42    2
    38    40    43    2
    39    11    14    1
    40    14    15    1
    41    14     1    1
    42    36    26   ar
    43    10     5   ar
    44    36    30   ar
    45    23    24    1
    46    18    19    1
@<TRIPOS>MOLECULE
*****
 43 46 0 0 0
SMALL
GASTEIGER

@<TRIPOS>ATOM
      1 C          62.4367   88.6375   12.4620 C.3     1  UNL1        0.1678
      2 C          63.1627   87.3273   12.5435 C.2     1  UNL1        0.2492
      3 O          63.5296   87.3893   13.2484 O.2     1  UNL1       -0.2727
      4 N          63.1814   86.2052   11.5483 N.am    1  UNL1       -0.2517
      5 C          62.4790   86.1158   10.2260 C.ar    1  UNL1        0.0679
      6 C          62.7662   84.8134    9.5397 C.ar    1  UNL1        0.0162
      7 C          62.1587   84.5218    8.1996 C.ar    1  UNL1        0.0014
      8 C          61.2640   85.5327    7.5458 C.ar    1  UNL1        0.0014
      9 C          60.9767   86.8352    8.2321 C.ar    1  UNL1        0.0162
     10 C          61.5842   87.1267    9.5722 C.ar    1  UNL1        0.0676
     11 N          61.1710   88.4766   10.0793 N.am    1  UNL1       -0.2556
     12 C          60.2575   89.2574    9.1815 C.2     1  UNL1        0.2535
     13 O          59.7844   90.6196    9.5944 O.2     1  UNL1       -0.2726
     14 C          61.5503   89.1490   11.3653 C.3     1  UNL1        0.1067
     15 C          60.9661   90.5131   11.5836 C.3     1  UNL1        0.0242
     16 C          63.8772   90.3689   13.7570 C.2     1  UNL1        0.2371
     17 O          64.9479   90.2597   12.7121 O.2     1  UNL1       -0.2737
     18 N          62.6216   89.5578   13.6320 N.am    1  UNL1       -0.2959
     19 H          61.9189   89.6295   14.3177 H       1  UNL1        0.1499
     20 C          64.0621   91.2893   14.9270 C.3     1  UNL1        0.1316
     21 C          63.3296   91.0282   16.2097 C.3     1  UNL1        0.0270
     22 C          66.3580   92.4086   15.4022 C.3     1  UNL1        0.0862
     23 N          64.9794   92.4707   14.8142 N.3     1  UNL1       -0.2902
     24 H          65.0922   92.6619   13.8187 H       1  UNL1        0.1237
     25 C          64.0126   85.0148   11.9254 C.3     1  UNL1        0.1278
     26 C          63.4264   83.9316   12.7816 C.ar    1  UNL1        0.0320
     27 C          63.0433   84.2232   14.2022 C.ar    1  UNL1        0.1363
     28 C          62.4571   83.1401   15.0584 C.ar    1  UNL1        0.0366
     29 C          62.2540   81.7652   14.4940 C.ar    1  UNL1        0.0036
     30 C          62.6370   81.4736   13.0734 C.ar    1  UNL1        0.0062
     31 C          62.4339   80.0988   12.5090 C.ar    1  UNL1        0.0345
     32 BR         61.8476   79.0156   13.3652 Br      1  UNL1       -0.0490
     33 C          62.8169   79.8071   11.0883 C.ar    1  UNL1        0.0067
     34 C          63.4031   80.8903   10.2321 C.ar    1  UNL1        0.0005
     35 C          63.6063   82.2651   10.7965 C.ar    1  UNL1       -0.0001
     36 C          63.2232   82.5567   12.2172 C.ar    1  UNL1        0.0010
     37 O          63.2465   85.5980   14.7667 O.3     1  UNL1       -0.4717
     38 C          63.8889   85.7694   16.1113 C.3     1  UNL1        0.2525
     39 C          59.8170   88.6759    7.8707 C.3     1  UNL1        0.2357
     40 S          59.2218   89.5639    6.8185 S.O2    1  UNL1        0.0007
     41 C          58.6265   90.4518    5.7664 C.3     1  UNL1        0.1766
     42 O          60.5545   90.2234    6.6212 O.2     1  UNL1       -0.1725
     43 O          57.8891   88.9043    7.0159 O.2     1  UNL1       -0.1725
@<TRIPOS>BOND
     1    22    23    1
     2    23    20    1
     3    20    21    1
     4    20    16    1
     5    16    17    2
     6    16    18   am
     7     1    18    1
     8     1     2    1
     9     2     3    2
    10     2     4   am
    11     4    25    1
    12    25    26    1
    13    26    27   ar
    14    27    37    1
    15    37    38    1
    16    27    28   ar
    17    28    29   ar
    18    29    30   ar
    19    30    31   ar
    20    31    32    1
    21    31    33   ar
    22    33    34   ar
    23    34    35   ar
    24    35    36   ar
    25     4     5    1
    26     5     6   ar
    27     6     7   ar
    28     7     8   ar
    29     8     9   ar
    30     9    10   ar
    31    10    11    1
    32    11    12   am
    33    12    13    2
    34    12    39    1
    35    39    40    1
    36    40    41    1
    37    40    42    2
    38    40    43    2
    39    11    14    1
    40    14    15    1
    41    14     1    1
    42    36    26   ar
    43    10     5   ar
    44    36    30   ar
    45    23    24    1
    46    18    19    1
@<TRIPOS>MOLECULE
*****
 43 46 0 0 0
SMALL
GASTEIGER

@<TRIPOS>ATOM
      1 C          63.0287   90.0635   14.9844 C.3     1  UNL1        0.1678
      2 C          62.4638   89.9615   13.5985 C.2     1  UNL1        0.2492
      3 O          61.8642   89.4474   13.7056 O.2     1  UNL1       -0.2727
      4 N          62.9212   90.6540   12.3490 N.am    1  UNL1       -0.2517
      5 C          64.0562   91.6194   12.1766 C.ar    1  UNL1        0.0679
      6 C          64.1727   92.0799   10.7538 C.ar    1  UNL1        0.0162
      7 C          65.2473   93.0517   10.3657 C.ar    1  UNL1        0.0014
      8 C          66.2054   93.5631   11.4004 C.ar    1  UNL1        0.0014
      9 C          66.0889   93.1027   12.8232 C.ar    1  UNL1        0.0162
     10 C          65.0143   92.1308   13.2113 C.ar    1  UNL1        0.0676
     11 N          65.0739   91.8031   14.6738 N.am    1  UNL1       -0.2556
     12 C          66.1610   92.4857   15.4499 C.2     1  UNL1        0.2535
     13 O          66.3086   92.2274   16.9201 O.2     1  UNL1       -0.2726
     14 C          64.1903   90.8831   15.4630 C.3     1  UNL1        0.1067
     15 C          64.5106   90.7673   16.9238 C.3     1  UNL1        0.0242
     16 C          62.9453   87.9385   16.4767 C.2     1  UNL1        0.2371
     17 O          64.2374   87.4672   15.8779 O.2     1  UNL1       -0.2737
     18 N          62.3410   89.2366   16.0300 N.am    1  UNL1       -0.2959
     19 H          61.4930   89.5458   16.4230 H       1  UNL1        0.1499
     20 C          62.2576   87.1115   17.5223 C.3     1  UNL1        0.1316
     21 C          62.5471   87.3472   18.9751 C.3     1  UNL1        0.0270
     22 C          61.6689   85.0262   16.0887 C.3     1  UNL1        0.0862
     23 N          61.2804   86.0488   17.1150 N.3     1  UNL1       -0.2902
     24 H          61.0324   85.5368   17.9616 H       1  UNL1        0.1237
     25 C          62.1401   90.3395   11.1076 C.3     1  UNL1        0.1278
     26 C          62.0039   88.9183   10.6471 C.ar    1  UNL1        0.0320
     27 C          62.7380   87.8241   11.3638 C.ar    1  UNL1        0.1363
     28 C          62.6019   86.4031   10.9034 C.ar    1  UNL1        0.0366
     29 C          61.7316   86.0763    9.7262 C.ar    1  UNL1        0.0036
     30 C          60.9975   87.1705    9.0095 C.ar    1  UNL1        0.0062
     31 C          60.1271   86.8437    7.8324 C.ar    1  UNL1        0.0345
     32 BR         59.9909   85.4226    7.3719 Br      1  UNL1       -0.0490
     33 C          59.3930   87.9379    7.1156 C.ar    1  UNL1        0.0067
     34 C          59.5292   89.3589    7.5761 C.ar    1  UNL1        0.0005
     35 C          60.3995   89.6858    8.7532 C.ar    1  UNL1       -0.0001
     36 C          61.1336   88.5915    9.4699 C.ar    1  UNL1        0.0010
     37 O          63.6084   88.1510   12.5410 O.3     1  UNL1       -0.4717
     38 C          64.1580   87.0482   13.3966 C.3     1  UNL1        0.2525
     39 C          67.1006   93.4267   14.7558 C.3     1  UNL1        0.2357
     40 S          68.5321   93.5167   15.1948 S.O2    1  UNL1        0.0007
     41 C          69.9635   93.6068   15.6339 C.3     1  UNL1        0.1766
     42 O          68.8923   92.4113   14.2470 O.2     1  UNL1       -0.1725
     43 O          68.1719   94.6221   16.1426 O.2     1  UNL1       -0.1725
@<TRIPOS>BOND
     1    22    23    1
     2    23    20    1
     3    20    21    1
     4    20    16    1
     5    16    17    2
     6    16    18   am
     7     1    18    1
     8     1     2    1
     9     2     3    2
    10     2     4   am
    11     4    25    1
    12    25    26    1
    13    26    27   ar
    14    27    37    1
    15    37    38    1
    16    27    28   ar
    17    28    29   ar
    18    29    30   ar
    19    30    31   ar
    20    31    32    1
    21    31    33   ar
    22    33    34   ar
    23    34    35   ar
    24    35    36   ar
    25     4     5    1
    26     5     6   ar
    27     6     7   ar
    28     7     8   ar
    29     8     9   ar
    30     9    10   ar
    31    10    11    1
    32    11    12   am
    33    12    13    2
    34    12    39    1
    35    39    40    1
    36    40    41    1
    37    40    42    2
    38    40    43    2
    39    11    14    1
    40    14    15    1
    41    14     1    1
    42    36    26   ar
    43    10     5   ar
    44    36    30   ar
    45    23    24    1
    46    18    19    1
@<TRIPOS>MOLECULE
*****
 43 46 0 0 0
SMALL
GASTEIGER

@<TRIPOS>ATOM
      1 C          62.0190   89.3929    9.6365 C.3     1  UNL1        0.1678
      2 C          61.6792   87.9775    9.9988 C.2     1  UNL1        0.2492
      3 O          61.2362   87.7528    9.3754 O.2     1  UNL1       -0.2727
      4 N          62.0780   87.2033   11.2201 N.am    1  UNL1       -0.2517
      5 C          62.9150   87.6532   12.3807 C.ar    1  UNL1        0.0679
      6 C          63.0742   86.5617   13.3972 C.ar    1  UNL1        0.0162
      7 C          63.8784   86.8055   14.6397 C.ar    1  UNL1        0.0014
      8 C          64.5233   88.1408   14.8657 C.ar    1  UNL1        0.0014
      9 C          64.3641   89.2323   13.8492 C.ar    1  UNL1        0.0162
     10 C          63.5599   88.9884   12.6067 C.ar    1  UNL1        0.0676
     11 N          63.5271   90.2036   11.7279 N.am    1  UNL1       -0.2556
     12 C          64.2797   91.3965   12.2384 C.2     1  UNL1        0.2535
     13 O          64.3106   92.6635   11.4360 O.2     1  UNL1       -0.2726
     14 C          62.8414   90.3837   10.4060 C.3     1  UNL1        0.1067
     15 C          62.9988   91.7327    9.7695 C.3     1  UNL1        0.0242
     16 C          60.0760   89.4918    7.9146 C.2     1  UNL1        0.2371
     17 O          59.2454   88.6119    8.8012 O.2     1  UNL1       -0.2737
     18 N          61.4627   89.8823    8.3322 N.am    1  UNL1       -0.2959
     19 H          62.0078   90.4598    7.7503 H       1  UNL1        0.1499
     20 C          59.5198   89.9812    6.6103 C.3     1  UNL1        0.1316
     21 C          60.4346   90.5749    5.5804 C.3     1  UNL1        0.0270
     22 C          57.3990   90.8154    5.3627 C.3     1  UNL1        0.0862
     23 N          58.0488   89.8770    6.3359 N.3     1  UNL1       -0.2902
     24 H          57.8798   88.9319    5.9914 H       1  UNL1        0.1237
     25 C          61.5730   85.7926   11.2900 C.3     1  UNL1        0.1278
     26 C          62.5412   84.6472   11.2634 C.ar    1  UNL1        0.0320
     27 C          63.3558   84.3821   10.0322 C.ar    1  UNL1        0.1363
     28 C          64.3240   83.2368   10.0056 C.ar    1  UNL1        0.0366
     29 C          64.4776   82.3565   11.2104 C.ar    1  UNL1        0.0036
     30 C          63.6630   82.6215   12.4416 C.ar    1  UNL1        0.0062
     31 C          63.8166   81.7412   13.6464 C.ar    1  UNL1        0.0345
     32 BR         64.7848   80.5958   13.6199 Br      1  UNL1       -0.0490
     33 C          63.0020   82.0062   14.8778 C.ar    1  UNL1        0.0067
     34 C          62.0338   83.1516   14.9043 C.ar    1  UNL1        0.0005
     35 C          61.8801   84.0319   13.6995 C.ar    1  UNL1       -0.0001
     36 C          62.6948   83.7669   12.4682 C.ar    1  UNL1        0.0010
     37 O          63.2023   85.2624    8.8274 O.3     1  UNL1       -0.4717
     38 C          62.7255   84.6810    7.5294 C.3     1  UNL1        0.2525
     39 C          65.0013   91.3225   13.5514 C.3     1  UNL1        0.2357
     40 S          66.0153   92.3681   13.9098 S.O2    1  UNL1        0.0007
     41 C          67.0292   93.4136   14.2684 C.3     1  UNL1        0.1766
     42 O          66.7892   92.0438   12.6665 O.2     1  UNL1       -0.1725
     43 O          65.2414   92.6923   15.1532 O.2     1  UNL1       -0.1725
@<TRIPOS>BOND
     1    22    23    1
     2    23    20    1
     3    20    21    1
     4    20    16    1
     5    16    17    2
     6    16    18   am
     7     1    18    1
     8     1     2    1
     9     2     3    2
    10     2     4   am
    11     4    25    1
    12    25    26    1
    13    26    27   ar
    14    27    37    1
    15    37    38    1
    16    27    28   ar
    17    28    29   ar
    18    29    30   ar
    19    30    31   ar
    20    31    32    1
    21    31    33   ar
    22    33    34   ar
    23    34    35   ar
    24    35    36   ar
    25     4     5    1
    26     5     6   ar
    27     6     7   ar
    28     7     8   ar
    29     8     9   ar
    30     9    10   ar
    31    10    11    1
    32    11    12   am
    33    12    13    2
    34    12    39    1
    35    39    40    1
    36    40    41    1
    37    40    42    2
    38    40    43    2
    39    11    14    1
    40    14    15    1
    41    14     1    1
    42    36    26   ar
    43    10     5   ar
    44    36    30   ar
    45    23    24    1
    46    18    19    1
@<TRIPOS>MOLECULE
*****
 43 46 0 0 0
SMALL
GASTEIGER

@<TRIPOS>ATOM
      1 C          62.3620   86.4840   10.4219 C.3     1  UNL1        0.1678
      2 C          62.5214   87.7030   11.2814 C.2     1  UNL1        0.2492
      3 O          62.2759   88.2806   10.7901 O.2     1  UNL1       -0.2727
      4 N          63.0158   87.7925   12.6948 N.am    1  UNL1       -0.2517
      5 C          63.4726   86.6853   13.5978 C.ar    1  UNL1        0.0679
      6 C          63.8889   87.2094   14.9402 C.ar    1  UNL1        0.0162
      7 C          64.3806   86.2632   15.9951 C.ar    1  UNL1        0.0014
      8 C          64.4560   84.7929   15.7077 C.ar    1  UNL1        0.0014
      9 C          64.0397   84.2688   14.3653 C.ar    1  UNL1        0.0162
     10 C          63.5481   85.2150   13.3104 C.ar    1  UNL1        0.0676
     11 N          63.1852   84.4889   12.0490 N.am    1  UNL1       -0.2556
     12 C          63.3754   83.0012   12.0768 C.2     1  UNL1        0.2535
     13 O          63.0424   82.1798   10.8666 O.2     1  UNL1       -0.2726
     14 C          62.6574   85.0536   10.7635 C.3     1  UNL1        0.1067
     15 C          62.3895   84.0560    9.6758 C.3     1  UNL1        0.0242
     16 C          60.4066   87.1298    8.8378 C.2     1  UNL1        0.2371
     17 O          59.4995   87.2881   10.0221 O.2     1  UNL1       -0.2737
     18 N          61.8377   86.7277    9.0378 N.am    1  UNL1       -0.2959
     19 H          62.4330   86.6237    8.2606 H       1  UNL1        0.1499
     20 C          59.8823   87.3735    7.4537 C.3     1  UNL1        0.1316
     21 C          59.3874   88.7360    7.0683 C.3     1  UNL1        0.0270
     22 C          60.7664   85.0765    6.6216 C.3     1  UNL1        0.0862
     23 N          59.8530   86.2547    6.4551 N.3     1  UNL1       -0.2902
     24 H          58.9004   85.8902    6.4491 H       1  UNL1        0.1237
     25 C          63.0589   89.1717   13.2830 C.3     1  UNL1        0.1278
     26 C          63.5364   90.3264   12.4532 C.ar    1  UNL1        0.0320
     27 C          62.7621   90.7489   11.2400 C.ar    1  UNL1        0.1363
     28 C          63.2395   91.9036   10.4101 C.ar    1  UNL1        0.0366
     29 C          64.4913   92.6358   10.7935 C.ar    1  UNL1        0.0036
     30 C          65.2655   92.2133   12.0066 C.ar    1  UNL1        0.0062
     31 C          66.5173   92.9455   12.3900 C.ar    1  UNL1        0.0345
     32 BR         66.9948   94.1002   11.5601 Br      1  UNL1       -0.0490
     33 C          67.2917   92.5229   13.6032 C.ar    1  UNL1        0.0067
     34 C          66.8142   91.3682   14.4330 C.ar    1  UNL1        0.0005
     35 C          65.5625   90.6360   14.0498 C.ar    1  UNL1       -0.0001
     36 C          64.7882   91.0586   12.8365 C.ar    1  UNL1        0.0010
     37 O          61.5103   90.0168   10.8566 O.3     1  UNL1       -0.4717
     38 C          60.1687   90.6000   11.1886 C.3     1  UNL1        0.2525
     39 C          63.8986   82.3349   13.3147 C.3     1  UNL1        0.2357
     40 S          63.2223   81.1070   13.8484 S.O2    1  UNL1        0.0007
     41 C          62.5459   79.8792   14.3820 C.3     1  UNL1        0.1766
     42 O          64.5589   80.5228   14.1980 O.2     1  UNL1       -0.1725
     43 O          61.8857   81.6913   13.4987 O.2     1  UNL1       -0.1725
@<TRIPOS>BOND
     1    22    23    1
     2    23    20    1
     3    20    21    1
     4    20    16    1
     5    16    17    2
     6    16    18   am
     7     1    18    1
     8     1     2    1
     9     2     3    2
    10     2     4   am
    11     4    25    1
    12    25    26    1
    13    26    27   ar
    14    27    37    1
    15    37    38    1
    16    27    28   ar
    17    28    29   ar
    18    29    30   ar
    19    30    31   ar
    20    31    32    1
    21    31    33   ar
    22    33    34   ar
    23    34    35   ar
    24    35    36   ar
    25     4     5    1
    26     5     6   ar
    27     6     7   ar
    28     7     8   ar
    29     8     9   ar
    30     9    10   ar
    31    10    11    1
    32    11    12   am
    33    12    13    2
    34    12    39    1
    35    39    40    1
    36    40    41    1
    37    40    42    2
    38    40    43    2
    39    11    14    1
    40    14    15    1
    41    14     1    1
    42    36    26   ar
    43    10     5   ar
    44    36    30   ar
    45    23    24    1
    46    18    19    1
@<TRIPOS>MOLECULE
*****
 43 46 0 0 0
SMALL
GASTEIGER

@<TRIPOS>ATOM
      1 C          60.3639   94.3203   -1.0250 C.3     1  UNL1        0.1678
      2 C          59.2984   93.6444   -1.8361 C.2     1  UNL1        0.2492
      3 O          58.8641   93.2899   -1.2694 O.2     1  UNL1       -0.2727
      4 N          59.1139   93.6463   -3.3247 N.am    1  UNL1       -0.2517
      5 C          59.9492   94.3244   -4.3699 C.ar    1  UNL1        0.0679
      6 C          59.4145   94.0709   -5.7482 C.ar    1  UNL1        0.0162
      7 C          60.1061   94.6612   -6.9412 C.ar    1  UNL1        0.0014
      8 C          61.3323   95.5050   -6.7558 C.ar    1  UNL1        0.0014
      9 C          61.8670   95.7585   -5.3775 C.ar    1  UNL1        0.0162
     10 C          61.1754   95.1682   -4.1845 C.ar    1  UNL1        0.0676
     11 N          61.8691   95.5422   -2.9082 N.am    1  UNL1       -0.2556
     12 C          63.0848   96.4081   -3.0579 C.2     1  UNL1        0.2535
     13 O          63.8525   96.8395   -1.8436 O.2     1  UNL1       -0.2726
     14 C          61.5080   95.1649   -1.5021 C.3     1  UNL1        0.1067
     15 C          62.4102   95.7034   -0.4316 C.3     1  UNL1        0.0242
     16 C          60.9581   92.9584    1.1063 C.2     1  UNL1        0.2371
     17 O          61.7335   91.9854    0.2683 O.2     1  UNL1       -0.2737
     18 N          60.2733   94.1258    0.4596 N.am    1  UNL1       -0.2959
     19 H          59.7644   94.7644    1.0096 H       1  UNL1        0.1499
     20 C          60.8675   92.7640    2.5908 C.3     1  UNL1        0.1316
     21 C          62.0040   92.1272    3.3346 C.3     1  UNL1        0.0270
     22 C          58.7986   92.1990    4.0572 C.3     1  UNL1        0.0862
     23 N          59.6406   93.2063    3.3317 N.3     1  UNL1       -0.2902
     24 H          59.9456   93.8893    4.0252 H       1  UNL1        0.1237
     25 C          57.9385   92.8669   -3.8357 C.3     1  UNL1        0.1278
     26 C          56.8053   93.5775   -4.5147 C.ar    1  UNL1        0.0320
     27 C          56.5652   93.3762   -5.9815 C.ar    1  UNL1        0.1363
     28 C          55.4320   94.0868   -6.6605 C.ar    1  UNL1        0.0366
     29 C          54.5390   94.9987   -5.8725 C.ar    1  UNL1        0.0036
     30 C          54.7791   95.2000   -4.4056 C.ar    1  UNL1        0.0062
     31 C          53.8861   96.1120   -3.6176 C.ar    1  UNL1        0.0345
     32 BR         52.7529   96.8226   -4.2966 Br      1  UNL1       -0.0490
     33 C          54.1262   96.3133   -2.1507 C.ar    1  UNL1        0.0067
     34 C          55.2594   95.6027   -1.4718 C.ar    1  UNL1        0.0005
     35 C          56.1525   94.6907   -2.2597 C.ar    1  UNL1       -0.0001
     36 C          55.9123   94.4895   -3.7267 C.ar    1  UNL1        0.0010
     37 O          57.4582   92.4643   -6.7695 O.3     1  UNL1       -0.4717
     38 C          56.9203   91.1742   -7.3139 C.3     1  UNL1        0.2525
     39 C          63.5328   96.8427   -4.4219 C.3     1  UNL1        0.2357
     40 S          64.8201   96.3225   -4.9896 S.O2    1  UNL1        0.0007
     41 C          66.1073   95.8024   -5.5573 C.3     1  UNL1        0.1766
     42 O          65.2000   95.7897   -3.6399 O.2     1  UNL1       -0.1725
     43 O          64.4402   96.8553   -6.3393 O.2     1  UNL1       -0.1725
@<TRIPOS>BOND
     1    22    23    1
     2    23    20    1
     3    20    21    1
     4    20    16    1
     5    16    17    2
     6    16    18   am
     7     1    18    1
     8     1     2    1
     9     2     3    2
    10     2     4   am
    11     4    25    1
    12    25    26    1
    13    26    27   ar
    14    27    37    1
    15    37    38    1
    16    27    28   ar
    17    28    29   ar
    18    29    30   ar
    19    30    31   ar
    20    31    32    1
    21    31    33   ar
    22    33    34   ar
    23    34    35   ar
    24    35    36   ar
    25     4     5    1
    26     5     6   ar
    27     6     7   ar
    28     7     8   ar
    29     8     9   ar
    30     9    10   ar
    31    10    11    1
    32    11    12   am
    33    12    13    2
    34    12    39    1
    35    39    40    1
    36    40    41    1
    37    40    42    2
    38    40    43    2
    39    11    14    1
    40    14    15    1
    41    14     1    1
    42    36    26   ar
    43    10     5   ar
    44    36    30   ar
    45    23    24    1
    46    18    19    1
