@<TRIPOS>MOLECULE
*****
 33 36 0 0 0
SMALL
GASTEIGER

@<TRIPOS>ATOM
      1 C          60.8050   88.0863    9.9817 C.ar    1  UNL1        0.1399
      2 C          59.7375   87.9520    8.9365 C.ar    1  UNL1        0.0554
      3 C          59.8128   86.8469    7.9251 C.ar    1  UNL1        0.1047
      4 N          60.9557   85.8759    7.9589 N.ar    1  UNL1       -0.2119
      5 C          62.0232   86.0101    9.0041 C.ar    1  UNL1        0.2218
      6 N          61.9479   87.1153   10.0155 N.ar    1  UNL1       -0.1983
      7 N          60.7297   89.1914   10.9931 N.pl3   1  UNL1       -0.2705
      8 C          59.4451   89.4555   11.7211 C.3     1  UNL1        0.1187
      9 C          66.4815   93.3272   11.6601 C.3     1  UNL1        0.0540
     10 C          65.5211   92.4632   12.4225 C.ar    1  UNL1        0.0804
     11 N          65.5557   92.1960   13.8981 N.ar    1  UNL1       -0.1736
     12 N          64.4134   91.2824   14.2306 N.ar    1  UNL1       -0.2491
     13 C          64.0717   90.7583   15.5939 C.3     1  UNL1        0.1537
     14 C          63.6729   90.9849   12.9605 C.ar    1  UNL1        0.0803
     15 C          62.4636   90.1439   12.6772 C.ar    1  UNL1        0.0336
     16 C          61.9390   90.0326   11.2764 C.ar    1  UNL1        0.0542
     17 C          62.6235   90.7623   10.1589 C.ar    1  UNL1        0.0150
     18 C          63.8328   91.6034   10.4422 C.ar    1  UNL1        0.0040
     19 C          64.3574   91.7147   11.8430 C.ar    1  UNL1        0.0326
     20 N          63.1660   85.0391    9.0379 N.pl3   1  UNL1       -0.2825
     21 H          63.7696   84.9622    8.2640 H       1  UNL1        0.1551
     22 C          63.3891   84.1853   10.2508 C.ar    1  UNL1        0.0518
     23 C          64.0953   82.8683   10.1212 C.ar    1  UNL1        0.0148
     24 C          64.3184   82.0144   11.3342 C.ar    1  UNL1        0.0026
     25 C          63.8353   82.4776   12.6766 C.ar    1  UNL1        0.0200
     26 C          63.1290   83.7946   12.8061 C.ar    1  UNL1        0.1229
     27 C          62.9059   84.6484   11.5932 C.ar    1  UNL1        0.0346
     28 S          62.6459   84.2577   14.1485 S.O2    1  UNL1        0.0572
     29 N          62.1628   84.7208   15.4909 N.3     1  UNL1       -0.2035
     30 O          62.1183   82.8827   14.4330 O.2     1  UNL1       -0.1532
     31 O          63.1735   85.6327   13.8640 O.2     1  UNL1       -0.1532
     32 H          61.7150   83.9443   15.9776 H       1  UNL1        0.1442
     33 H          61.4904   85.4779   15.3677 H       1  UNL1        0.1442
@<TRIPOS>BOND
     1     9    10    1
     2    10    11   ar
     3    11    12   ar
     4    12    13    1
     5    12    14   ar
     6    14    15   ar
     7    15    16   ar
     8    16     7    1
     9     7     8    1
    10     7     1    1
    11     1     2   ar
    12     2     3   ar
    13     3     4   ar
    14     4     5   ar
    15     5    20    1
    16    20    22    1
    17    22    23   ar
    18    23    24   ar
    19    24    25   ar
    20    25    26   ar
    21    26    28    1
    22    28    29    1
    23    28    30    2
    24    28    31    2
    25    26    27   ar
    26     5     6   ar
    27    16    17   ar
    28    17    18   ar
    29    18    19   ar
    30    19    10   ar
    31    19    14   ar
    32     6     1   ar
    33    27    22   ar
    34    20    21    1
    35    29    32    1
    36    29    33    1
@<TRIPOS>MOLECULE
*****
 33 36 0 0 0
SMALL
GASTEIGER

@<TRIPOS>ATOM
      1 C          63.2226   83.8057   12.0338 C.ar    1  UNL1        0.1399
      2 C          62.3957   82.6469   12.5064 C.ar    1  UNL1        0.0554
      3 C          62.3034   82.3395   13.9716 C.ar    1  UNL1        0.1047
      4 N          63.0381   83.1909   14.9643 N.ar    1  UNL1       -0.2119
      5 C          63.8650   84.3497   14.4917 C.ar    1  UNL1        0.2218
      6 N          63.9573   84.6571   13.0264 N.ar    1  UNL1       -0.1983
      7 N          63.3149   84.1131   10.5685 N.pl3   1  UNL1       -0.2705
      8 C          64.2420   83.3228    9.6933 C.3     1  UNL1        0.1187
      9 C          59.3078   88.9312    7.1979 C.3     1  UNL1        0.0540
     10 C          60.0235   88.6439    8.4845 C.ar    1  UNL1        0.0804
     11 N          60.0779   89.5440    9.6831 N.ar    1  UNL1       -0.1736
     12 N          60.8985   88.8624   10.7377 N.ar    1  UNL1       -0.2491
     13 C          61.2114   89.4066   12.1000 C.3     1  UNL1        0.1537
     14 C          61.3512   87.5411   10.1908 C.ar    1  UNL1        0.0803
     15 C          62.1861   86.4435   10.7809 C.ar    1  UNL1        0.0336
     16 C          62.4801   85.2108    9.9784 C.ar    1  UNL1        0.0542
     17 C          61.9393   85.0757    8.5858 C.ar    1  UNL1        0.0150
     18 C          61.1045   86.1734    7.9957 C.ar    1  UNL1        0.0040
     19 C          60.8105   87.4060    8.7982 C.ar    1  UNL1        0.0326
     20 N          64.5997   85.2011   15.4844 N.pl3   1  UNL1       -0.2825
     21 H          65.4474   84.8846   15.8723 H       1  UNL1        0.1551
     22 C          64.0428   86.5347   15.8861 C.ar    1  UNL1        0.0518
     23 C          63.2591   86.6678   17.1581 C.ar    1  UNL1        0.0148
     24 C          62.7021   88.0014   17.5599 C.ar    1  UNL1        0.0026
     25 C          62.9289   89.2019   16.6895 C.ar    1  UNL1        0.0200
     26 C          63.7126   89.0687   15.4175 C.ar    1  UNL1        0.1229
     27 C          64.2695   87.7351   15.0158 C.ar    1  UNL1        0.0346
     28 S          63.9394   90.2691   14.5471 S.O2    1  UNL1        0.0572
     29 N          64.1662   91.4696   13.6768 N.3     1  UNL1       -0.2035
     30 O          64.3193   89.3710   13.4074 O.2     1  UNL1       -0.1532
     31 O          63.5596   91.1672   15.6869 O.2     1  UNL1       -0.1532
     32 H          64.4612   91.1659   12.7488 H       1  UNL1        0.1442
     33 H          64.8916   92.0563   14.0891 H       1  UNL1        0.1442
@<TRIPOS>BOND
     1     9    10    1
     2    10    11   ar
     3    11    12   ar
     4    12    13    1
     5    12    14   ar
     6    14    15   ar
     7    15    16   ar
     8    16     7    1
     9     7     8    1
    10     7     1    1
    11     1     2   ar
    12     2     3   ar
    13     3     4   ar
    14     4     5   ar
    15     5    20    1
    16    20    22    1
    17    22    23   ar
    18    23    24   ar
    19    24    25   ar
    20    25    26   ar
    21    26    28    1
    22    28    29    1
    23    28    30    2
    24    28    31    2
    25    26    27   ar
    26     5     6   ar
    27    16    17   ar
    28    17    18   ar
    29    18    19   ar
    30    19    10   ar
    31    19    14   ar
    32     6     1   ar
    33    27    22   ar
    34    20    21    1
    35    29    32    1
    36    29    33    1
@<TRIPOS>MOLECULE
*****
 33 36 0 0 0
SMALL
GASTEIGER

@<TRIPOS>ATOM
      1 C          61.7402   87.4388   10.6045 C.ar    1  UNL1        0.1399
      2 C          60.3784   87.8853   10.1615 C.ar    1  UNL1        0.0554
      3 C          59.8062   89.1721   10.6779 C.ar    1  UNL1        0.1047
      4 N          60.5958   90.0126   11.6371 N.ar    1  UNL1       -0.2119
      5 C          61.9576   89.5662   12.0801 C.ar    1  UNL1        0.2218
      6 N          62.5298   88.2792   11.5638 N.ar    1  UNL1       -0.1983
      7 N          62.3124   86.1520   10.0882 N.pl3   1  UNL1       -0.2705
      8 C          62.6192   86.0001    8.6278 C.3     1  UNL1        0.1187
      9 C          63.4888   80.3429   14.0255 C.3     1  UNL1        0.0540
     10 C          63.4022   81.8394   14.0780 C.ar    1  UNL1        0.0804
     11 N          63.5943   82.6914   15.2976 N.ar    1  UNL1       -0.1736
     12 N          63.4191   84.1253   14.8935 N.ar    1  UNL1       -0.2491
     13 C          63.5256   85.3159   15.7996 C.3     1  UNL1        0.1537
     14 C          63.1188   84.1595   13.4243 C.ar    1  UNL1        0.0803
     15 C          62.8535   85.2946   12.4803 C.ar    1  UNL1        0.0336
     16 C          62.5777   85.0169   11.0323 C.ar    1  UNL1        0.0542
     17 C          62.5672   83.6041   10.5283 C.ar    1  UNL1        0.0150
     18 C          62.8325   82.4691   11.4723 C.ar    1  UNL1        0.0040
     19 C          63.1083   82.7468   12.9203 C.ar    1  UNL1        0.0326
     20 N          62.7472   90.4066   13.0393 N.pl3   1  UNL1       -0.2825
     21 H          62.4911   90.4414   13.9893 H       1  UNL1        0.1551
     22 C          63.9269   91.1939   12.5512 C.ar    1  UNL1        0.0518
     23 C          64.0038   91.6165   11.1141 C.ar    1  UNL1        0.0148
     24 C          65.1836   92.4039   10.6259 C.ar    1  UNL1        0.0026
     25 C          66.2864   92.7686   11.5750 C.ar    1  UNL1        0.0200
     26 C          66.2095   92.3460   13.0122 C.ar    1  UNL1        0.1229
     27 C          65.0298   91.5586   13.5003 C.ar    1  UNL1        0.0346
     28 S          67.3124   92.7107   13.9612 S.O2    1  UNL1        0.0572
     29 N          68.4152   93.0754   14.9103 N.3     1  UNL1       -0.2035
     30 O          68.2909   91.9498   13.1165 O.2     1  UNL1       -0.1532
     31 O          66.3338   93.4716   14.8059 O.2     1  UNL1       -0.1532
     32 H          69.2926   92.6703   14.5838 H       1  UNL1        0.1442
     33 H          68.1983   92.7134   15.8389 H       1  UNL1        0.1442
@<TRIPOS>BOND
     1     9    10    1
     2    10    11   ar
     3    11    12   ar
     4    12    13    1
     5    12    14   ar
     6    14    15   ar
     7    15    16   ar
     8    16     7    1
     9     7     8    1
    10     7     1    1
    11     1     2   ar
    12     2     3   ar
    13     3     4   ar
    14     4     5   ar
    15     5    20    1
    16    20    22    1
    17    22    23   ar
    18    23    24   ar
    19    24    25   ar
    20    25    26   ar
    21    26    28    1
    22    28    29    1
    23    28    30    2
    24    28    31    2
    25    26    27   ar
    26     5     6   ar
    27    16    17   ar
    28    17    18   ar
    29    18    19   ar
    30    19    10   ar
    31    19    14   ar
    32     6     1   ar
    33    27    22   ar
    34    20    21    1
    35    29    32    1
    36    29    33    1
@<TRIPOS>MOLECULE
*****
 33 36 0 0 0
SMALL
GASTEIGER

@<TRIPOS>ATOM
      1 C          63.5012   85.4234   14.9030 C.ar    1  UNL1        0.1399
      2 C          62.7017   85.1215   16.1358 C.ar    1  UNL1        0.0554
      3 C          62.4356   86.2029   17.1406 C.ar    1  UNL1        0.1047
      4 N          62.9689   87.5862   16.9128 N.ar    1  UNL1       -0.2119
      5 C          63.7684   87.8882   15.6800 C.ar    1  UNL1        0.2218
      6 N          64.0345   86.8067   14.6751 N.ar    1  UNL1       -0.1983
      7 N          63.7673   84.3420   13.8982 N.pl3   1  UNL1       -0.2705
      8 C          64.3879   83.0483   14.3352 C.3     1  UNL1        0.1187
      9 C          62.5274   84.8368    6.9089 C.3     1  UNL1        0.0540
     10 C          62.1617   85.4155    8.2436 C.ar    1  UNL1        0.0804
     11 N          61.1896   86.5323    8.4838 N.ar    1  UNL1       -0.1736
     12 N          61.1310   86.7860    9.9611 N.ar    1  UNL1       -0.2491
     13 C          60.2851   87.8185   10.6455 C.3     1  UNL1        0.1537
     14 C          62.0669   85.8260   10.6338 C.ar    1  UNL1        0.0803
     15 C          62.4213   85.6137   12.0757 C.ar    1  UNL1        0.0336
     16 C          63.4128   84.5544   12.4562 C.ar    1  UNL1        0.0542
     17 C          64.0498   83.7073   11.3947 C.ar    1  UNL1        0.0150
     18 C          63.6953   83.9196    9.9527 C.ar    1  UNL1        0.0040
     19 C          62.7039   84.9790    9.5723 C.ar    1  UNL1        0.0326
     20 N          64.3017   89.2715   15.4522 N.pl3   1  UNL1       -0.2825
     21 H          64.7503   89.7530   16.1845 H       1  UNL1        0.1551
     22 C          64.1518   89.9212   14.1086 C.ar    1  UNL1        0.0518
     23 C          63.1611   89.3806   13.1205 C.ar    1  UNL1        0.0148
     24 C          63.0111   90.0304   11.7768 C.ar    1  UNL1        0.0026
     25 C          63.8517   91.2208   11.4213 C.ar    1  UNL1        0.0200
     26 C          64.8424   91.7613   12.4095 C.ar    1  UNL1        0.1229
     27 C          64.9924   91.1116   13.7531 C.ar    1  UNL1        0.0346
     28 S          65.6830   92.9517   12.0540 S.O2    1  UNL1        0.0572
     29 N          66.5237   94.1421   11.6985 N.3     1  UNL1       -0.2035
     30 O          65.5005   92.6455   10.5970 O.2     1  UNL1       -0.1532
     31 O          65.8656   93.2579   13.5110 O.2     1  UNL1       -0.1532
     32 H          66.5972   94.2155   10.6838 H       1  UNL1        0.1442
     33 H          67.4550   94.0326   12.0998 H       1  UNL1        0.1442
@<TRIPOS>BOND
     1     9    10    1
     2    10    11   ar
     3    11    12   ar
     4    12    13    1
     5    12    14   ar
     6    14    15   ar
     7    15    16   ar
     8    16     7    1
     9     7     8    1
    10     7     1    1
    11     1     2   ar
    12     2     3   ar
    13     3     4   ar
    14     4     5   ar
    15     5    20    1
    16    20    22    1
    17    22    23   ar
    18    23    24   ar
    19    24    25   ar
    20    25    26   ar
    21    26    28    1
    22    28    29    1
    23    28    30    2
    24    28    31    2
    25    26    27   ar
    26     5     6   ar
    27    16    17   ar
    28    17    18   ar
    29    18    19   ar
    30    19    10   ar
    31    19    14   ar
    32     6     1   ar
    33    27    22   ar
    34    20    21    1
    35    29    32    1
    36    29    33    1
@<TRIPOS>MOLECULE
*****
 33 36 0 0 0
SMALL
GASTEIGER

@<TRIPOS>ATOM
      1 C          61.8262   87.5251   10.5563 C.ar    1  UNL1        0.1399
      2 C          60.7008   88.1943    9.8244 C.ar    1  UNL1        0.0554
      3 C          60.1480   89.4951   10.3267 C.ar    1  UNL1        0.1047
      4 N          60.7205   90.1266   11.5610 N.ar    1  UNL1       -0.2119
      5 C          61.8458   89.4574   12.2929 C.ar    1  UNL1        0.2218
      6 N          62.3987   88.1566   11.7906 N.ar    1  UNL1       -0.1983
      7 N          62.3790   86.2243   10.0540 N.pl3   1  UNL1       -0.2705
      8 C          62.7064   86.0603    8.5994 C.3     1  UNL1        0.1187
      9 C          63.3480   80.4060   14.0340 C.3     1  UNL1        0.0540
     10 C          63.3190   81.9052   14.0747 C.ar    1  UNL1        0.0804
     11 N          63.5486   82.7588   15.2866 N.ar    1  UNL1       -0.1736
     12 N          63.4268   84.1951   14.8715 N.ar    1  UNL1       -0.2491
     13 C          63.5825   85.3880   15.7675 C.3     1  UNL1        0.1537
     14 C          63.1220   84.2291   13.4032 C.ar    1  UNL1        0.0803
     15 C          62.8966   85.3659   12.4510 C.ar    1  UNL1        0.0336
     16 C          62.6045   85.0875   11.0063 C.ar    1  UNL1        0.0542
     17 C          62.5379   83.6722   10.5139 C.ar    1  UNL1        0.0150
     18 C          62.7633   82.5353   11.4661 C.ar    1  UNL1        0.0040
     19 C          63.0554   82.8138   12.9107 C.ar    1  UNL1        0.0326
     20 N          62.4183   90.0889   13.5272 N.pl3   1  UNL1       -0.2825
     21 H          61.9141   90.0632   14.3724 H       1  UNL1        0.1551
     22 C          63.7589   90.7596   13.4737 C.ar    1  UNL1        0.0518
     23 C          64.7498   90.5443   14.5789 C.ar    1  UNL1        0.0148
     24 C          66.0905   91.2150   14.5255 C.ar    1  UNL1        0.0026
     25 C          66.4401   92.1011   13.3668 C.ar    1  UNL1        0.0200
     26 C          65.4491   92.3164   12.2615 C.ar    1  UNL1        0.1229
     27 C          64.1085   91.6457   12.3150 C.ar    1  UNL1        0.0346
     28 S          65.7987   93.2025   11.1028 S.O2    1  UNL1        0.0572
     29 N          66.1483   94.0886    9.9441 N.3     1  UNL1       -0.2035
     30 O          66.9071   93.8157   11.9062 O.2     1  UNL1       -0.1532
     31 O          64.6903   92.5893   10.2994 O.2     1  UNL1       -0.1532
     32 H          66.9382   94.6826   10.1965 H       1  UNL1        0.1442
     33 H          65.3458   94.6722    9.7081 H       1  UNL1        0.1442
@<TRIPOS>BOND
     1     9    10    1
     2    10    11   ar
     3    11    12   ar
     4    12    13    1
     5    12    14   ar
     6    14    15   ar
     7    15    16   ar
     8    16     7    1
     9     7     8    1
    10     7     1    1
    11     1     2   ar
    12     2     3   ar
    13     3     4   ar
    14     4     5   ar
    15     5    20    1
    16    20    22    1
    17    22    23   ar
    18    23    24   ar
    19    24    25   ar
    20    25    26   ar
    21    26    28    1
    22    28    29    1
    23    28    30    2
    24    28    31    2
    25    26    27   ar
    26     5     6   ar
    27    16    17   ar
    28    17    18   ar
    29    18    19   ar
    30    19    10   ar
    31    19    14   ar
    32     6     1   ar
    33    27    22   ar
    34    20    21    1
    35    29    32    1
    36    29    33    1
@<TRIPOS>MOLECULE
*****
 33 36 0 0 0
SMALL
GASTEIGER

@<TRIPOS>ATOM
      1 C          64.1559   87.1045   14.5875 C.ar    1  UNL1        0.1399
      2 C          65.3666   86.3384   15.0322 C.ar    1  UNL1        0.0554
      3 C          65.5866   84.9361   14.5474 C.ar    1  UNL1        0.1047
      4 N          64.5961   84.2998   13.6178 N.ar    1  UNL1       -0.2119
      5 C          63.3856   85.0658   13.1731 C.ar    1  UNL1        0.2218
      6 N          63.1655   86.4682   13.6580 N.ar    1  UNL1       -0.1983
      7 N          63.9359   88.5068   15.0724 N.pl3   1  UNL1       -0.2705
      8 C          63.2985   88.7469   16.4088 C.3     1  UNL1        0.1187
      9 C          65.4099   93.8376   10.5955 C.3     1  UNL1        0.0540
     10 C          65.8196   93.2005   11.8902 C.ar    1  UNL1        0.0804
     11 N          66.9329   93.6587   12.7849 N.ar    1  UNL1       -0.1736
     12 N          66.9892   92.7347   13.9652 N.ar    1  UNL1       -0.2491
     13 C          67.9546   92.8242   15.1098 C.3     1  UNL1        0.1537
     14 C          65.9106   91.7054   13.8000 C.ar    1  UNL1        0.0803
     15 C          65.4934   90.5433   14.6516 C.ar    1  UNL1        0.0336
     16 C          64.3532   89.6690   14.2208 C.ar    1  UNL1        0.0542
     17 C          63.6303   89.9569   12.9383 C.ar    1  UNL1        0.0150
     18 C          64.0476   91.1190   12.0867 C.ar    1  UNL1        0.0040
     19 C          65.1878   91.9933   12.5176 C.ar    1  UNL1        0.0326
     20 N          62.3951   84.4295   12.2436 N.pl3   1  UNL1       -0.2825
     21 H          61.7826   83.7347   12.5774 H       1  UNL1        0.1551
     22 C          62.3377   84.8517   10.8054 C.ar    1  UNL1        0.0518
     23 C          63.4453   84.4724    9.8677 C.ar    1  UNL1        0.0148
     24 C          63.3879   84.8947    8.4294 C.ar    1  UNL1        0.0026
     25 C          62.2230   85.6962    7.9290 C.ar    1  UNL1        0.0200
     26 C          61.1154   86.0755    8.8668 C.ar    1  UNL1        0.1229
     27 C          61.1728   85.6533   10.3050 C.ar    1  UNL1        0.0346
     28 S          59.9504   86.8771    8.3664 S.O2    1  UNL1        0.0572
     29 N          58.7855   87.6787    7.8659 N.3     1  UNL1       -0.2035
     30 O          60.2360   87.9330    9.3928 O.2     1  UNL1       -0.1532
     31 O          59.6649   85.8212    7.3399 O.2     1  UNL1       -0.1532
     32 H          58.7045   88.5373    8.4106 H       1  UNL1        0.1442
     33 H          57.9298   87.1322    7.9635 H       1  UNL1        0.1442
@<TRIPOS>BOND
     1     9    10    1
     2    10    11   ar
     3    11    12   ar
     4    12    13    1
     5    12    14   ar
     6    14    15   ar
     7    15    16   ar
     8    16     7    1
     9     7     8    1
    10     7     1    1
    11     1     2   ar
    12     2     3   ar
    13     3     4   ar
    14     4     5   ar
    15     5    20    1
    16    20    22    1
    17    22    23   ar
    18    23    24   ar
    19    24    25   ar
    20    25    26   ar
    21    26    28    1
    22    28    29    1
    23    28    30    2
    24    28    31    2
    25    26    27   ar
    26     5     6   ar
    27    16    17   ar
    28    17    18   ar
    29    18    19   ar
    30    19    10   ar
    31    19    14   ar
    32     6     1   ar
    33    27    22   ar
    34    20    21    1
    35    29    32    1
    36    29    33    1
@<TRIPOS>MOLECULE
*****
 33 36 0 0 0
SMALL
GASTEIGER

@<TRIPOS>ATOM
      1 C          64.0116   87.0517   14.3649 C.ar    1  UNL1        0.1399
      2 C          64.9524   86.0685   14.9960 C.ar    1  UNL1        0.0554
      3 C          65.0799   84.6843   14.4322 C.ar    1  UNL1        0.1047
      4 N          64.2666   84.2834   13.2373 N.ar    1  UNL1       -0.2119
      5 C          63.3259   85.2666   12.6062 C.ar    1  UNL1        0.2218
      6 N          63.1984   86.6508   13.1700 N.ar    1  UNL1       -0.1983
      7 N          63.8841   88.4358   14.9287 N.pl3   1  UNL1       -0.2705
      8 C          63.3366   88.6352   16.3109 C.3     1  UNL1        0.1187
      9 C          65.3801   93.8792   10.5970 C.3     1  UNL1        0.0540
     10 C          65.7745   93.2171   11.8839 C.ar    1  UNL1        0.0804
     11 N          66.8684   93.6655   12.8070 N.ar    1  UNL1       -0.1736
     12 N          66.9141   92.7158   13.9672 N.ar    1  UNL1       -0.2491
     13 C          67.8596   92.7887   15.1295 C.3     1  UNL1        0.1537
     14 C          65.8485   91.6805   13.7611 C.ar    1  UNL1        0.0803
     15 C          65.4285   90.4957   14.5795 C.ar    1  UNL1        0.0336
     16 C          64.3042   89.6207   14.1103 C.ar    1  UNL1        0.0542
     17 C          63.5998   89.9305   12.8227 C.ar    1  UNL1        0.0150
     18 C          64.0198   91.1153   12.0043 C.ar    1  UNL1        0.0040
     19 C          65.1441   91.9903   12.4735 C.ar    1  UNL1        0.0326
     20 N          62.5126   84.8656   11.4112 N.pl3   1  UNL1       -0.2825
     21 H          62.4540   83.9179   11.1512 H       1  UNL1        0.1551
     22 C          61.7887   85.9086   10.6125 C.ar    1  UNL1        0.0518
     23 C          61.5858   85.7176    9.1387 C.ar    1  UNL1        0.0148
     24 C          60.8618   86.7606    8.3398 C.ar    1  UNL1        0.0026
     25 C          60.3407   87.9946    9.0150 C.ar    1  UNL1        0.0200
     26 C          60.5436   88.1855   10.4889 C.ar    1  UNL1        0.1229
     27 C          61.2676   87.1426   11.2877 C.ar    1  UNL1        0.0346
     28 S          60.0225   89.4195   11.1641 S.O2    1  UNL1        0.0572
     29 N          59.5015   90.6535   11.8392 N.3     1  UNL1       -0.2035
     30 O          60.5346   90.2565   10.0295 O.2     1  UNL1       -0.1532
     31 O          59.5105   88.5825   12.2986 O.2     1  UNL1       -0.1532
     32 H          59.7117   91.4698   11.2649 H       1  UNL1        0.1442
     33 H          59.9466   90.7557   12.7512 H       1  UNL1        0.1442
@<TRIPOS>BOND
     1     9    10    1
     2    10    11   ar
     3    11    12   ar
     4    12    13    1
     5    12    14   ar
     6    14    15   ar
     7    15    16   ar
     8    16     7    1
     9     7     8    1
    10     7     1    1
    11     1     2   ar
    12     2     3   ar
    13     3     4   ar
    14     4     5   ar
    15     5    20    1
    16    20    22    1
    17    22    23   ar
    18    23    24   ar
    19    24    25   ar
    20    25    26   ar
    21    26    28    1
    22    28    29    1
    23    28    30    2
    24    28    31    2
    25    26    27   ar
    26     5     6   ar
    27    16    17   ar
    28    17    18   ar
    29    18    19   ar
    30    19    10   ar
    31    19    14   ar
    32     6     1   ar
    33    27    22   ar
    34    20    21    1
    35    29    32    1
    36    29    33    1
@<TRIPOS>MOLECULE
*****
 33 36 0 0 0
SMALL
GASTEIGER

@<TRIPOS>ATOM
      1 C          62.1071   88.9777   12.0306 C.ar    1  UNL1        0.1399
      2 C          60.6873   89.4343   11.8698 C.ar    1  UNL1        0.0554
      3 C          59.7367   88.6434   11.0210 C.ar    1  UNL1        0.1047
      4 N          60.2057   87.3958   10.3328 N.ar    1  UNL1       -0.2119
      5 C          61.6254   86.9392   10.4936 C.ar    1  UNL1        0.2218
      6 N          62.5762   87.7301   11.3425 N.ar    1  UNL1       -0.1983
      7 N          63.0577   89.7686   12.8795 N.pl3   1  UNL1       -0.2705
      8 C          63.2349   89.4231   14.3284 C.3     1  UNL1        0.1187
      9 C          66.4222   95.0051    9.4310 C.3     1  UNL1        0.0540
     10 C          66.2647   94.3481   10.7703 C.ar    1  UNL1        0.0804
     11 N          66.9659   94.7456   12.0353 N.ar    1  UNL1       -0.1736
     12 N          66.5129   93.8214   13.1264 N.ar    1  UNL1       -0.2491
     13 C          66.9622   93.8592   14.5570 C.3     1  UNL1        0.1537
     14 C          65.5318   92.8526   12.5357 C.ar    1  UNL1        0.0803
     15 C          64.7582   91.7161   13.1357 C.ar    1  UNL1        0.0336
     16 C          63.8313   90.9052   12.2795 C.ar    1  UNL1        0.0542
     17 C          63.6779   91.2307   10.8233 C.ar    1  UNL1        0.0150
     18 C          64.4515   92.3672   10.2233 C.ar    1  UNL1        0.0040
     19 C          65.3784   93.1781   11.0795 C.ar    1  UNL1        0.0326
     20 N          62.0945   85.6916    9.8054 N.pl3   1  UNL1       -0.2825
     21 H          61.9439   85.5760    8.8394 H       1  UNL1        0.1551
     22 C          62.7930   84.6202   10.5891 C.ar    1  UNL1        0.0518
     23 C          63.7655   83.7049    9.9063 C.ar    1  UNL1        0.0148
     24 C          64.4641   82.6334   10.6899 C.ar    1  UNL1        0.0026
     25 C          64.1902   82.4774   12.1564 C.ar    1  UNL1        0.0200
     26 C          63.2176   83.3929   12.8392 C.ar    1  UNL1        0.1229
     27 C          62.5191   84.4642   12.0556 C.ar    1  UNL1        0.0346
     28 S          62.9436   83.2368   14.3057 S.O2    1  UNL1        0.0572
     29 N          62.6696   83.0808   15.7722 N.3     1  UNL1       -0.2035
     30 O          62.3444   84.6115   14.3400 O.2     1  UNL1       -0.1532
     31 O          63.5428   81.8621   14.2714 O.2     1  UNL1       -0.1532
     32 H          62.2234   83.9268   16.1266 H       1  UNL1        0.1442
     33 H          63.5478   82.9266   16.2676 H       1  UNL1        0.1442
@<TRIPOS>BOND
     1     9    10    1
     2    10    11   ar
     3    11    12   ar
     4    12    13    1
     5    12    14   ar
     6    14    15   ar
     7    15    16   ar
     8    16     7    1
     9     7     8    1
    10     7     1    1
    11     1     2   ar
    12     2     3   ar
    13     3     4   ar
    14     4     5   ar
    15     5    20    1
    16    20    22    1
    17    22    23   ar
    18    23    24   ar
    19    24    25   ar
    20    25    26   ar
    21    26    28    1
    22    28    29    1
    23    28    30    2
    24    28    31    2
    25    26    27   ar
    26     5     6   ar
    27    16    17   ar
    28    17    18   ar
    29    18    19   ar
    30    19    10   ar
    31    19    14   ar
    32     6     1   ar
    33    27    22   ar
    34    20    21    1
    35    29    32    1
    36    29    33    1
@<TRIPOS>MOLECULE
*****
 33 36 0 0 0
SMALL
GASTEIGER

@<TRIPOS>ATOM
      1 C          60.8825   88.5336   10.0361 C.ar    1  UNL1        0.1399
      2 C          59.9211   88.2918    8.9104 C.ar    1  UNL1        0.0554
      3 C          59.9518   86.9910    8.1642 C.ar    1  UNL1        0.1047
      4 N          60.9440   85.9319    8.5437 N.ar    1  UNL1       -0.2119
      5 C          61.9054   86.1737    9.6694 C.ar    1  UNL1        0.2218
      6 N          61.8746   87.4746   10.4156 N.ar    1  UNL1       -0.1983
      7 N          60.8517   89.8345   10.7823 N.pl3   1  UNL1       -0.2705
      8 C          59.5654   90.5952   10.9108 C.3     1  UNL1        0.1187
      9 C          66.9676   92.6481   13.0872 C.3     1  UNL1        0.0540
     10 C          65.7623   91.8645   13.5155 C.ar    1  UNL1        0.0804
     11 N          65.4890   91.3531   14.8989 N.ar    1  UNL1       -0.1736
     12 N          64.1765   90.6274   14.8739 N.ar    1  UNL1       -0.2491
     13 C          63.5176   89.9566   16.0425 C.3     1  UNL1        0.1537
     14 C          63.6386   90.6903   13.4751 C.ar    1  UNL1        0.0803
     15 C          62.3830   90.1502   12.8574 C.ar    1  UNL1        0.0336
     16 C          62.1074   90.3746   11.4001 C.ar    1  UNL1        0.0542
     17 C          63.0875   91.1392   10.5605 C.ar    1  UNL1        0.0150
     18 C          64.3431   91.6794   11.1783 C.ar    1  UNL1        0.0040
     19 C          64.6187   91.4549   12.6355 C.ar    1  UNL1        0.0326
     20 N          62.8975   85.1146   10.0489 N.pl3   1  UNL1       -0.2825
     21 H          63.5486   84.7897    9.3857 H       1  UNL1        0.1551
     22 C          62.8977   84.5506   11.4388 C.ar    1  UNL1        0.0518
     23 C          63.1985   85.4395   12.6088 C.ar    1  UNL1        0.0148
     24 C          63.1987   84.8755   13.9988 C.ar    1  UNL1        0.0026
     25 C          62.8980   83.4225   14.2186 C.ar    1  UNL1        0.0200
     26 C          62.5972   82.5335   13.0484 C.ar    1  UNL1        0.1229
     27 C          62.5970   83.0975   11.6585 C.ar    1  UNL1        0.0346
     28 S          62.2966   81.0804   13.2682 S.O2    1  UNL1        0.0572
     29 N          61.9959   79.6274   13.4880 N.3     1  UNL1       -0.2035
     30 O          63.2461   80.7172   12.1653 O.2     1  UNL1       -0.1532
     31 O          61.3471   81.4437   14.3711 O.2     1  UNL1       -0.1532
     32 H          62.5366   79.0651   12.8307 H       1  UNL1        0.1442
     33 H          61.0007   79.4600   13.3402 H       1  UNL1        0.1442
@<TRIPOS>BOND
     1     9    10    1
     2    10    11   ar
     3    11    12   ar
     4    12    13    1
     5    12    14   ar
     6    14    15   ar
     7    15    16   ar
     8    16     7    1
     9     7     8    1
    10     7     1    1
    11     1     2   ar
    12     2     3   ar
    13     3     4   ar
    14     4     5   ar
    15     5    20    1
    16    20    22    1
    17    22    23   ar
    18    23    24   ar
    19    24    25   ar
    20    25    26   ar
    21    26    28    1
    22    28    29    1
    23    28    30    2
    24    28    31    2
    25    26    27   ar
    26     5     6   ar
    27    16    17   ar
    28    17    18   ar
    29    18    19   ar
    30    19    10   ar
    31    19    14   ar
    32     6     1   ar
    33    27    22   ar
    34    20    21    1
    35    29    32    1
    36    29    33    1
