@<TRIPOS>MOLECULE
*****
 38 41 0 0 0
SMALL
GASTEIGER

@<TRIPOS>ATOM
      1 C          62.0145   86.3659    9.6287 C.ar    1  UNK1        0.1512
      2 O          62.0908   86.2193    8.1378 O.2     1  UNK1       -0.4351
      3 C          62.7703   84.9169    7.8343 C.ar    1  UNK1        0.2849
      4 N          63.1141   84.2586    9.1376 N.ar    1  UNK1       -0.1999
      5 C          62.6469   85.1542   10.2466 C.ar    1  UNK1        0.1681
      6 C          62.7876   84.8852   11.7155 C.2     1  UNK1        0.2666
      7 O          61.8094   85.4811   12.6841 O.2     1  UNK1       -0.2684
      8 N          63.9063   84.0203   12.2159 N.am    2  PHE2       -0.2960
      9 H          64.5482   83.6291   11.5801 H       2  PHE2        0.1501
     10 CA         64.0469   83.7513   13.6848 C.3     2  PHE2        0.1127
     11 C          63.3246   82.5936   14.3078 C.2     2  PHE2        0.0685
     12 O          61.9922   82.8059   14.9635 O.co2   2  PHE2       -0.5475
     13 OXT        63.9346   81.2236   14.2752 O.co2   2  PHE2       -0.5475
     14 CB         64.9097   84.6399   14.5308 C.3     2  PHE2        0.0516
     15 CG         64.2928   85.7636   15.3096 C.ar    2  PHE2       -0.0201
     16 CD1        63.4978   85.4705   16.5473 C.ar    2  PHE2       -0.0042
     17 CE1        62.8808   86.5943   17.3261 C.ar    2  PHE2       -0.0003
     18 CZ         63.0588   88.0112   16.8671 C.ar    2  PHE2       -0.0000
     19 CE2        63.8538   88.3043   15.6293 C.ar    2  PHE2       -0.0003
     20 CD2        64.4708   87.1805   14.8506 C.ar    2  PHE2       -0.0042
     21 C          61.4117   87.5214   10.3712 C.3     1  UNK1        0.0926
     22 C          63.9649   91.0527   11.4941 C.ar    1  UNK1        0.0000
     23 C          63.2629   91.0259   10.1689 C.ar    1  UNK1       -0.0003
     24 C          62.4118   89.8488    9.7946 C.ar    1  UNK1       -0.0038
     25 C          62.2628   88.6985   10.7455 C.ar    1  UNK1       -0.0146
     26 C          62.9648   88.7252   12.0708 C.ar    1  UNK1       -0.0038
     27 C          63.8159   89.9023   12.4451 C.ar    1  UNK1       -0.0003
     28 C          65.9011   94.5084   11.2520 C.ar    1  UNK1        0.0503
     29 C          66.5182   94.5840   12.6170 C.ar    1  UNK1        0.0147
     30 C          66.2841   93.4824   13.6078 C.ar    1  UNK1        0.0013
     31 C          65.4331   92.3053   13.2335 C.ar    1  UNK1        0.0001
     32 C          64.8160   92.2298   11.8684 C.ar    1  UNK1        0.0012
     33 C          65.0500   93.3313   10.8777 C.ar    1  UNK1        0.0147
     34 C          67.5867   96.6865    8.3945 C.3     1  UNK1        0.0949
     35 C          67.3527   95.5849    9.3853 C.2     1  UNK1        0.2266
     36 O          68.3362   94.4582    9.5004 O.2     1  UNK1       -0.2748
     37 N          66.1351   95.6101   10.2611 N.am    1  UNK1       -0.2839
     38 H          65.4896   96.3496   10.1856 H       1  UNK1        0.1549
@<TRIPOS>UNITY_ATOM_ATTR
12 1
charge -1
@<TRIPOS>BOND
     1    34    35    1
     2    35    36    2
     3    35    37   am
     4    37    28    1
     5    28    29   ar
     6    29    30   ar
     7    30    31   ar
     8    31    32   ar
     9    32    22    1
    10    22    23   ar
    11    23    24   ar
    12    24    25   ar
    13    25    21    1
    14    21     1    1
    15     1     2   ar
    16     2     3   ar
    17     3     4   ar
    18     4     5   ar
    19     5     6    1
    20     6     7    2
    21     6     8   am
    22     8    10    1
    23    10    14    1
    24    14    15    1
    25    15    16   ar
    26    16    17   ar
    27    17    18   ar
    28    18    19   ar
    29    19    20   ar
    30    10    11    1
    31    11    12   ar
    32    11    13   ar
    33    25    26   ar
    34    26    27   ar
    35    32    33   ar
    36    33    28   ar
    37    27    22   ar
    38     5     1   ar
    39    20    15   ar
    40    37    38    1
    41     8     9    1
@<TRIPOS>MOLECULE
*****
 38 41 0 0 0
SMALL
GASTEIGER

@<TRIPOS>ATOM
      1 C          61.9629   86.3535    9.6118 C.ar    1  UNK1        0.1512
      2 O          62.0135   86.2025    8.1203 O.2     1  UNK1       -0.4351
      3 C          62.6901   84.9005    7.8089 C.ar    1  UNK1        0.2849
      4 N          63.0576   84.2467    9.1080 N.ar    1  UNK1       -0.1999
      5 C          62.6082   85.1447   10.2222 C.ar    1  UNK1        0.1681
      6 C          62.7748   84.8804   11.6893 C.2     1  UNK1        0.2666
      7 O          61.8290   85.4997   12.6751 O.2     1  UNK1       -0.2684
      8 N          63.8871   83.9967   12.1705 N.am    2  PHE2       -0.2960
      9 H          64.5079   83.5902   11.5235 H       2  PHE2        0.1501
     10 CA         64.0537   83.7323   13.6376 C.3     2  PHE2        0.1127
     11 C          63.3470   82.5734   14.2759 C.2     2  PHE2        0.0685
     12 O          63.9687   81.2084   14.2485 O.co2   2  PHE2       -0.5475
     13 OXT        62.0187   82.7793   14.9416 O.co2   2  PHE2       -0.5475
     14 CB         64.9270   84.6269   14.4665 C.3     2  PHE2        0.0516
     15 CG         64.3199   85.7572   15.2436 C.ar    2  PHE2       -0.0201
     16 CD1        64.4842   87.1694   14.7655 C.ar    2  PHE2       -0.0042
     17 CE1        63.8771   88.2997   15.5426 C.ar    2  PHE2       -0.0003
     18 CZ         63.1058   88.0177   16.7978 C.ar    2  PHE2       -0.0000
     19 CE2        62.9415   86.6055   17.2759 C.ar    2  PHE2       -0.0003
     20 CD2        63.5486   85.4752   16.4988 C.ar    2  PHE2       -0.0042
     21 C          61.3709   87.5101   10.3613 C.3     1  UNK1        0.0926
     22 C          63.9076   91.0983   11.3306 C.ar    1  UNK1        0.0000
     23 C          63.7877   89.9757   12.3182 C.ar    1  UNK1       -0.0003
     24 C          62.9421   88.7796   11.9951 C.ar    1  UNK1       -0.0038
     25 C          62.2165   88.7061   10.6844 C.ar    1  UNK1       -0.0146
     26 C          62.3364   89.8287    9.6968 C.ar    1  UNK1       -0.0038
     27 C          63.1819   91.0248   10.0200 C.ar    1  UNK1       -0.0003
     28 C          66.2289   93.6195   13.3319 C.ar    1  UNK1        0.0503
     29 C          66.4443   94.6865   12.3000 C.ar    1  UNK1        0.0147
     30 C          65.8141   94.5575   10.9450 C.ar    1  UNK1        0.0013
     31 C          64.9686   93.3615   10.6218 C.ar    1  UNK1        0.0001
     32 C          64.7532   92.2944   11.6538 C.ar    1  UNK1        0.0012
     33 C          65.3834   92.4234   13.0088 C.ar    1  UNK1        0.0147
     34 C          68.8121   93.2265   16.3191 C.3     1  UNK1        0.0949
     35 C          68.1819   93.0976   14.9640 C.2     1  UNK1        0.2266
     36 O          68.8745   92.3178   13.8859 O.2     1  UNK1       -0.2748
     37 N          66.8591   93.7484   14.6871 N.am    1  UNK1       -0.2839
     38 H          66.4046   94.2602   15.3946 H       1  UNK1        0.1549
@<TRIPOS>UNITY_ATOM_ATTR
12 1
charge -1
@<TRIPOS>BOND
     1    34    35    1
     2    35    36    2
     3    35    37   am
     4    37    28    1
     5    28    29   ar
     6    29    30   ar
     7    30    31   ar
     8    31    32   ar
     9    32    22    1
    10    22    23   ar
    11    23    24   ar
    12    24    25   ar
    13    25    21    1
    14    21     1    1
    15     1     2   ar
    16     2     3   ar
    17     3     4   ar
    18     4     5   ar
    19     5     6    1
    20     6     7    2
    21     6     8   am
    22     8    10    1
    23    10    14    1
    24    14    15    1
    25    15    16   ar
    26    16    17   ar
    27    17    18   ar
    28    18    19   ar
    29    19    20   ar
    30    10    11    1
    31    11    12   ar
    32    11    13   ar
    33    25    26   ar
    34    26    27   ar
    35    32    33   ar
    36    33    28   ar
    37    27    22   ar
    38     5     1   ar
    39    20    15   ar
    40    37    38    1
    41     8     9    1
@<TRIPOS>MOLECULE
*****
 38 41 0 0 0
SMALL
GASTEIGER

@<TRIPOS>ATOM
      1 C          59.9280   87.4334    9.6368 C.ar    1  UNK1        0.1512
      2 O          58.9066   87.6685    8.5638 O.2     1  UNK1       -0.4351
      3 C          59.1387   86.6635    7.4747 C.ar    1  UNK1        0.2849
      4 N          60.3036   85.8072    7.8746 N.ar    1  UNK1       -0.1999
      5 C          60.7914   86.2831    9.2109 C.ar    1  UNK1        0.1681
      6 C          61.9408   85.7093    9.9853 C.2     1  UNK1        0.2666
      7 O          63.1742   85.2492    9.2663 O.2     1  UNK1       -0.2684
      8 N          61.8567   85.5956   11.4786 N.am    2  PHE2       -0.2960
      9 H          61.0471   85.8976   11.9504 H       2  PHE2        0.1501
     10 CA         63.0061   85.0218   12.2529 C.3     2  PHE2        0.1127
     11 C          63.5953   85.7888   13.3995 C.2     2  PHE2        0.0685
     12 O          64.0415   85.0653   14.6355 O.co2   2  PHE2       -0.5475
     13 OXT        63.7383   87.2793   13.3102 O.co2   2  PHE2       -0.5475
     14 CB         63.5663   83.6811   11.8808 C.3     2  PHE2        0.0516
     15 CG         62.9673   82.4320   12.4561 C.ar    2  PHE2       -0.0201
     16 CD1        63.1743   81.1152   11.7681 C.ar    2  PHE2       -0.0042
     17 CE1        62.5753   79.8661   12.3433 C.ar    2  PHE2       -0.0003
     18 CZ         61.7692   79.9338   13.6065 C.ar    2  PHE2       -0.0000
     19 CE2        61.5621   81.2506   14.2944 C.ar    2  PHE2       -0.0003
     20 CD2        62.1612   82.4997   13.7192 C.ar    2  PHE2       -0.0042
     21 C          60.0625   88.2119   10.9119 C.3     1  UNK1        0.0926
     22 C          63.4404   91.1425   11.4133 C.ar    1  UNK1        0.0000
     23 C          62.8019   90.5203   12.6196 C.ar    1  UNK1       -0.0003
     24 C          61.6760   89.5435   12.4525 C.ar    1  UNK1       -0.0038
     25 C          61.1885   89.1888   11.0790 C.ar    1  UNK1       -0.0146
     26 C          61.8269   89.8109    9.8727 C.ar    1  UNK1       -0.0038
     27 C          62.9529   90.7878   10.0399 C.ar    1  UNK1       -0.0003
     28 C          66.3038   93.3116   13.1002 C.ar    1  UNK1        0.0503
     29 C          66.8183   94.0731   11.9148 C.ar    1  UNK1        0.0147
     30 C          66.2068   93.8577   10.5621 C.ar    1  UNK1        0.0013
     31 C          65.0808   92.8808   10.3950 C.ar    1  UNK1        0.0001
     32 C          64.5664   92.1193   11.5805 C.ar    1  UNK1        0.0012
     33 C          65.1779   92.3347   12.9331 C.ar    1  UNK1        0.0147
     34 C          68.8605   93.1375   16.1306 C.3     1  UNK1        0.0949
     35 C          68.2490   92.9222   14.7780 C.2     1  UNK1        0.2266
     36 O          68.9712   92.1022   13.7503 O.2     1  UNK1       -0.2748
     37 N          66.9153   93.5269   14.4530 N.am    1  UNK1       -0.2839
     38 H          66.4413   94.0651   15.1274 H       1  UNK1        0.1549
@<TRIPOS>UNITY_ATOM_ATTR
12 1
charge -1
@<TRIPOS>BOND
     1    34    35    1
     2    35    36    2
     3    35    37   am
     4    37    28    1
     5    28    29   ar
     6    29    30   ar
     7    30    31   ar
     8    31    32   ar
     9    32    22    1
    10    22    23   ar
    11    23    24   ar
    12    24    25   ar
    13    25    21    1
    14    21     1    1
    15     1     2   ar
    16     2     3   ar
    17     3     4   ar
    18     4     5   ar
    19     5     6    1
    20     6     7    2
    21     6     8   am
    22     8    10    1
    23    10    14    1
    24    14    15    1
    25    15    16   ar
    26    16    17   ar
    27    17    18   ar
    28    18    19   ar
    29    19    20   ar
    30    10    11    1
    31    11    12   ar
    32    11    13   ar
    33    25    26   ar
    34    26    27   ar
    35    32    33   ar
    36    33    28   ar
    37    27    22   ar
    38     5     1   ar
    39    20    15   ar
    40    37    38    1
    41     8     9    1
@<TRIPOS>MOLECULE
*****
 38 41 0 0 0
SMALL
GASTEIGER

@<TRIPOS>ATOM
      1 C          59.7843   87.5325    9.5689 C.ar    1  UNK1        0.1512
      2 O          58.7992   87.7258    8.4544 O.2     1  UNK1       -0.4351
      3 C          59.1093   86.7231    7.3827 C.ar    1  UNK1        0.2849
      4 N          60.2861   85.9102    7.8348 N.ar    1  UNK1       -0.1999
      5 C          60.7032   86.4105    9.1860 C.ar    1  UNK1        0.1681
      6 C          61.8398   85.8815   10.0097 C.2     1  UNK1        0.2666
      7 O          63.1236   85.4797    9.3460 O.2     1  UNK1       -0.2684
      8 N          61.6926   85.7544   11.4970 N.am    2  PHE2       -0.2960
      9 H          60.8500   86.0181   11.9326 H       2  PHE2        0.1501
     10 CA         62.8291   85.2254   12.3206 C.3     2  PHE2        0.1127
     11 C          63.3048   85.9893   13.5207 C.2     2  PHE2        0.0685
     12 O          63.8883   87.3611   13.3537 O.co2   2  PHE2       -0.5475
     13 OXT        63.1969   85.3815   14.8878 O.co2   2  PHE2       -0.5475
     14 CB         63.4901   83.9326   11.9443 C.3     2  PHE2        0.0516
     15 CG         62.9502   82.6343   12.4667 C.ar    2  PHE2       -0.0201
     16 CD1        63.1642   81.3674   11.6927 C.ar    2  PHE2       -0.0042
     17 CE1        62.6244   80.0690   12.2151 C.ar    2  PHE2       -0.0003
     18 CZ         61.8706   80.0377   13.5115 C.ar    2  PHE2       -0.0000
     19 CE2        61.6566   81.3046   14.2855 C.ar    2  PHE2       -0.0003
     20 CD2        62.1964   82.6029   13.7631 C.ar    2  PHE2       -0.0042
     21 C          59.8406   88.3226   10.8427 C.3     1  UNK1        0.0926
     22 C          63.4258   90.8893   11.7418 C.ar    1  UNK1        0.0000
     23 C          62.6057   90.3266   12.8646 C.ar    1  UNK1       -0.0003
     24 C          61.4106   89.4711   12.5649 C.ar    1  UNK1       -0.0038
     25 C          61.0357   89.1782   11.1424 C.ar    1  UNK1       -0.0146
     26 C          61.8558   89.7409   10.0196 C.ar    1  UNK1       -0.0038
     27 C          63.0508   90.5964   10.3193 C.ar    1  UNK1       -0.0003
     28 C          66.4561   93.4041   11.2483 C.ar    1  UNK1        0.0503
     29 C          67.0110   93.4560   12.6409 C.ar    1  UNK1        0.0147
     30 C          66.3709   92.6524   13.7337 C.ar    1  UNK1        0.0013
     31 C          65.1758   91.7968   13.4340 C.ar    1  UNK1        0.0001
     32 C          64.6209   91.7449   12.0415 C.ar    1  UNK1        0.0012
     33 C          65.2610   92.5485   10.9486 C.ar    1  UNK1        0.0147
     34 C          67.3614   96.4513    8.8724 C.3     1  UNK1        0.0949
     35 C          66.7214   95.6476    9.9653 C.2     1  UNK1        0.2266
     36 O          65.7064   96.2839   10.8681 O.2     1  UNK1       -0.2748
     37 N          67.0962   94.2077   10.1553 N.am    1  UNK1       -0.2839
     38 H          67.7623   93.7901    9.5628 H       1  UNK1        0.1549
@<TRIPOS>UNITY_ATOM_ATTR
12 1
charge -1
@<TRIPOS>BOND
     1    34    35    1
     2    35    36    2
     3    35    37   am
     4    37    28    1
     5    28    29   ar
     6    29    30   ar
     7    30    31   ar
     8    31    32   ar
     9    32    22    1
    10    22    23   ar
    11    23    24   ar
    12    24    25   ar
    13    25    21    1
    14    21     1    1
    15     1     2   ar
    16     2     3   ar
    17     3     4   ar
    18     4     5   ar
    19     5     6    1
    20     6     7    2
    21     6     8   am
    22     8    10    1
    23    10    14    1
    24    14    15    1
    25    15    16   ar
    26    16    17   ar
    27    17    18   ar
    28    18    19   ar
    29    19    20   ar
    30    10    11    1
    31    11    12   ar
    32    11    13   ar
    33    25    26   ar
    34    26    27   ar
    35    32    33   ar
    36    33    28   ar
    37    27    22   ar
    38     5     1   ar
    39    20    15   ar
    40    37    38    1
    41     8     9    1
@<TRIPOS>MOLECULE
*****
 38 41 0 0 0
SMALL
GASTEIGER

@<TRIPOS>ATOM
      1 C          63.7943   88.0039   15.2220 C.ar    1  UNK1        0.1512
      2 O          63.1761   87.0287   16.1793 O.2     1  UNK1       -0.4351
      3 C          62.8155   87.7728   17.4308 C.ar    1  UNK1        0.2849
      4 N          63.2110   89.2081   17.2469 N.ar    1  UNK1       -0.1999
      5 C          63.8159   89.3509   15.8818 C.ar    1  UNK1        0.1681
      6 C          64.3489   90.6181   15.2818 C.2     1  UNK1        0.2666
      7 O          63.8267   91.9454   15.7462 O.2     1  UNK1       -0.2684
      8 N          65.4040   90.5581   14.2174 N.am    2  PHE2       -0.2960
      9 H          65.7468   89.6870   13.9125 H       2  PHE2        0.1501
     10 CA         65.9370   91.8254   13.6174 C.3     2  PHE2        0.1127
     11 C          67.1233   92.5059   14.2334 C.2     2  PHE2        0.0685
     12 O          68.5023   92.2260   13.7135 O.co2   2  PHE2       -0.5475
     13 OXT        66.9307   93.4664   15.3694 O.co2   2  PHE2       -0.5475
     14 CB         65.2837   92.4121   12.4013 C.3     2  PHE2        0.0516
     15 CG         66.1124   93.1289   11.3768 C.ar    2  PHE2       -0.0201
     16 CD1        67.0308   92.3537   10.4793 C.ar    2  PHE2       -0.0042
     17 CE1        67.8595   93.0704    9.4548 C.ar    2  PHE2       -0.0003
     18 CZ         67.7697   94.5623    9.3278 C.ar    2  PHE2       -0.0000
     19 CE2        66.8512   95.3375   10.2253 C.ar    2  PHE2       -0.0003
     20 CD2        66.0225   94.6208   11.2498 C.ar    2  PHE2       -0.0042
     21 C          64.3019   87.6878   13.8463 C.3     1  UNK1        0.0926
     22 C          61.5208   87.9103   10.3156 C.ar    1  UNK1        0.0000
     23 C          61.8757   86.5788   10.9081 C.ar    1  UNK1       -0.0003
     24 C          62.8027   86.5046   12.0850 C.ar    1  UNK1       -0.0038
     25 C          63.3749   87.7619   12.6694 C.ar    1  UNK1       -0.0146
     26 C          63.0200   89.0935   12.0770 C.ar    1  UNK1       -0.0038
     27 C          62.0929   89.1677   10.9001 C.ar    1  UNK1       -0.0003
     28 C          59.7247   89.2362    7.0345 C.ar    1  UNK1        0.0503
     29 C          58.7397   88.1328    6.7849 C.ar    1  UNK1        0.0147
     30 C          58.6817   86.9553    7.7123 C.ar    1  UNK1        0.0013
     31 C          59.6088   86.8811    8.8892 C.ar    1  UNK1        0.0001
     32 C          60.5938   87.9845    9.1387 C.ar    1  UNK1        0.0012
     33 C          60.6517   89.1620    8.2114 C.ar    1  UNK1        0.0147
     34 C          58.5744   92.1665    4.6179 C.3     1  UNK1        0.0949
     35 C          58.5164   90.9890    5.5452 C.2     1  UNK1        0.2266
     36 O          57.1922   90.3865    5.9106 O.2     1  UNK1       -0.2748
     37 N          59.7827   90.4138    6.1071 N.am    1  UNK1       -0.2839
     38 H          60.6518   90.8092    5.8673 H       1  UNK1        0.1549
@<TRIPOS>UNITY_ATOM_ATTR
12 1
charge -1
@<TRIPOS>BOND
     1    34    35    1
     2    35    36    2
     3    35    37   am
     4    37    28    1
     5    28    29   ar
     6    29    30   ar
     7    30    31   ar
     8    31    32   ar
     9    32    22    1
    10    22    23   ar
    11    23    24   ar
    12    24    25   ar
    13    25    21    1
    14    21     1    1
    15     1     2   ar
    16     2     3   ar
    17     3     4   ar
    18     4     5   ar
    19     5     6    1
    20     6     7    2
    21     6     8   am
    22     8    10    1
    23    10    14    1
    24    14    15    1
    25    15    16   ar
    26    16    17   ar
    27    17    18   ar
    28    18    19   ar
    29    19    20   ar
    30    10    11    1
    31    11    12   ar
    32    11    13   ar
    33    25    26   ar
    34    26    27   ar
    35    32    33   ar
    36    33    28   ar
    37    27    22   ar
    38     5     1   ar
    39    20    15   ar
    40    37    38    1
    41     8     9    1
@<TRIPOS>MOLECULE
*****
 38 41 0 0 0
SMALL
GASTEIGER

@<TRIPOS>ATOM
      1 C          60.2706   87.3734    9.7493 C.ar    1  UNK1        0.1512
      2 O          59.5427   87.6210    8.4613 O.2     1  UNK1       -0.4351
      3 C          59.8862   86.5101    7.5138 C.ar    1  UNK1        0.2849
      4 N          60.8265   85.5759    8.2161 N.ar    1  UNK1       -0.1999
      5 C          61.0641   86.1095    9.5977 C.ar    1  UNK1        0.1681
      6 C          61.9411   85.4882   10.6441 C.2     1  UNK1        0.2666
      7 O          62.7863   86.3577   11.5271 O.2     1  UNK1       -0.2684
      8 N          61.9729   83.9975   10.8074 N.am    2  PHE2       -0.2960
      9 H          61.4181   83.4269   10.2279 H       2  PHE2        0.1501
     10 CA         62.8499   83.3763   11.8538 C.3     2  PHE2        0.1127
     11 C          64.2028   82.8469   11.4806 C.2     2  PHE2        0.0685
     12 O          64.7524   83.0944   10.1069 O.co2   2  PHE2       -0.5475
     13 OXT        65.0063   82.0700   12.4811 O.co2   2  PHE2       -0.5475
     14 CB         62.3740   83.2843   13.2733 C.3     2  PHE2        0.0516
     15 CG         62.8379   84.2885   14.2864 C.ar    2  PHE2       -0.0201
     16 CD1        64.0218   85.1607   13.9903 C.ar    2  PHE2       -0.0042
     17 CE1        64.4857   86.1649   15.0034 C.ar    2  PHE2       -0.0003
     18 CZ         63.7656   86.2969   16.3126 C.ar    2  PHE2       -0.0000
     19 CE2        62.5817   85.4247   16.6088 C.ar    2  PHE2       -0.0003
     20 CD2        62.1179   84.4205   15.5956 C.ar    2  PHE2       -0.0042
     21 C          60.2149   88.2380   10.9737 C.3     1  UNK1        0.0926
     22 C          63.6129   91.0359   11.9091 C.ar    1  UNK1        0.0000
     23 C          63.1664   90.8465   10.4898 C.ar    1  UNK1       -0.0003
     24 C          62.0337   89.9139   10.1780 C.ar    1  UNK1       -0.0038
     25 C          61.3476   89.1707   11.2855 C.ar    1  UNK1       -0.0146
     26 C          61.7941   89.3601   12.7049 C.ar    1  UNK1       -0.0038
     27 C          62.9268   90.2927   13.0167 C.ar    1  UNK1       -0.0003
     28 C          66.2058   94.0237   11.5933 C.ar    1  UNK1        0.0503
     29 C          67.0110   93.8338   12.8446 C.ar    1  UNK1        0.0147
     30 C          66.6834   92.7113   13.7840 C.ar    1  UNK1        0.0013
     31 C          65.5507   91.7786   13.4722 C.ar    1  UNK1        0.0001
     32 C          64.7456   91.9686   12.2210 C.ar    1  UNK1        0.0012
     33 C          65.0731   93.0911   11.2815 C.ar    1  UNK1        0.0147
     34 C          67.6285   95.9934    8.4555 C.3     1  UNK1        0.0949
     35 C          67.3010   94.8709    9.3949 C.2     1  UNK1        0.2266
     36 O          67.7411   93.4729    9.0755 O.2     1  UNK1       -0.2748
     37 N          66.5333   95.1464   10.6538 N.am    1  UNK1       -0.2839
     38 H          66.2444   96.0639   10.8635 H       1  UNK1        0.1549
@<TRIPOS>UNITY_ATOM_ATTR
12 1
charge -1
@<TRIPOS>BOND
     1    34    35    1
     2    35    36    2
     3    35    37   am
     4    37    28    1
     5    28    29   ar
     6    29    30   ar
     7    30    31   ar
     8    31    32   ar
     9    32    22    1
    10    22    23   ar
    11    23    24   ar
    12    24    25   ar
    13    25    21    1
    14    21     1    1
    15     1     2   ar
    16     2     3   ar
    17     3     4   ar
    18     4     5   ar
    19     5     6    1
    20     6     7    2
    21     6     8   am
    22     8    10    1
    23    10    14    1
    24    14    15    1
    25    15    16   ar
    26    16    17   ar
    27    17    18   ar
    28    18    19   ar
    29    19    20   ar
    30    10    11    1
    31    11    12   ar
    32    11    13   ar
    33    25    26   ar
    34    26    27   ar
    35    32    33   ar
    36    33    28   ar
    37    27    22   ar
    38     5     1   ar
    39    20    15   ar
    40    37    38    1
    41     8     9    1
@<TRIPOS>MOLECULE
*****
 38 41 0 0 0
SMALL
GASTEIGER

@<TRIPOS>ATOM
      1 C          64.7366   91.2643   13.2209 C.ar    1  UNK1        0.1512
      2 O          66.0798   91.8357   13.5665 O.2     1  UNK1       -0.4351
      3 C          66.5960   92.5670   12.3629 C.ar    1  UNK1        0.2849
      4 N          65.5718   92.4476   11.2733 N.ar    1  UNK1       -0.1999
      5 C          64.4227   91.6425   11.8037 C.ar    1  UNK1        0.1681
      6 C          63.1782   91.2793   11.0492 C.2     1  UNK1        0.2666
      7 O          63.1066   91.5042    9.5679 O.2     1  UNK1       -0.2684
      8 N          62.0053   90.6911   11.7761 N.am    2  PHE2       -0.2960
      9 H          62.0523   90.5435   12.7483 H       2  PHE2        0.1501
     10 CA         60.7607   90.3279   11.0216 C.3     2  PHE2        0.1127
     11 C          59.4372   90.3007   11.7269 C.2     2  PHE2        0.0685
     12 O          58.4729   91.4371   11.5563 O.co2   2  PHE2       -0.5475
     13 OXT        59.0778   89.1372   12.6027 O.co2   2  PHE2       -0.5475
     14 CB         60.8397   89.9919    9.5619 C.3     2  PHE2        0.0516
     15 CG         60.8647   88.5579    9.1226 C.ar    2  PHE2       -0.0201
     16 CD1        59.7648   88.0197    8.2562 C.ar    2  PHE2       -0.0042
     17 CE1        59.7897   86.5857    7.8169 C.ar    2  PHE2       -0.0003
     18 CZ         60.9146   85.6899    8.2440 C.ar    2  PHE2       -0.0000
     19 CE2        62.0145   86.2282    9.1103 C.ar    2  PHE2       -0.0003
     20 CD2        61.9895   87.6622    9.5496 C.ar    2  PHE2       -0.0042
     21 C          63.8611   90.4565   14.1324 C.3     1  UNK1        0.0926
     22 C          63.8490   85.9658   13.8439 C.ar    1  UNK1        0.0000
     23 C          64.2870   86.6346   15.1131 C.ar    1  UNK1       -0.0003
     24 C          64.2910   88.1316   15.2092 C.ar    1  UNK1       -0.0038
     25 C          63.8571   88.9596   14.0363 C.ar    1  UNK1       -0.0146
     26 C          63.4190   88.2908   12.7671 C.ar    1  UNK1       -0.0038
     27 C          63.4150   86.7939   12.6710 C.ar    1  UNK1       -0.0003
     28 C          63.6710   82.3066   12.3181 C.ar    1  UNK1        0.0503
     29 C          63.8368   81.4751   13.5554 C.ar    1  UNK1        0.0147
     30 C          64.0067   82.1405   14.8889 C.ar    1  UNK1        0.0013
     31 C          64.0107   83.6374   14.9851 C.ar    1  UNK1        0.0001
     32 C          63.8449   84.4689   13.7478 C.ar    1  UNK1        0.0012
     33 C          63.6750   83.8035   12.4142 C.ar    1  UNK1        0.0147
     34 C          62.7509   79.5949    9.5703 C.3     1  UNK1        0.0949
     35 C          62.9208   80.2603   10.9038 C.2     1  UNK1        0.2266
     36 O          62.5104   79.5449   12.1567 O.2     1  UNK1       -0.2748
     37 N          63.5011   81.6412   10.9845 N.am    1  UNK1       -0.2839
     38 H          63.7705   82.1108   10.1622 H       1  UNK1        0.1549
@<TRIPOS>UNITY_ATOM_ATTR
12 1
charge -1
@<TRIPOS>BOND
     1    34    35    1
     2    35    36    2
     3    35    37   am
     4    37    28    1
     5    28    29   ar
     6    29    30   ar
     7    30    31   ar
     8    31    32   ar
     9    32    22    1
    10    22    23   ar
    11    23    24   ar
    12    24    25   ar
    13    25    21    1
    14    21     1    1
    15     1     2   ar
    16     2     3   ar
    17     3     4   ar
    18     4     5   ar
    19     5     6    1
    20     6     7    2
    21     6     8   am
    22     8    10    1
    23    10    14    1
    24    14    15    1
    25    15    16   ar
    26    16    17   ar
    27    17    18   ar
    28    18    19   ar
    29    19    20   ar
    30    10    11    1
    31    11    12   ar
    32    11    13   ar
    33    25    26   ar
    34    26    27   ar
    35    32    33   ar
    36    33    28   ar
    37    27    22   ar
    38     5     1   ar
    39    20    15   ar
    40    37    38    1
    41     8     9    1
@<TRIPOS>MOLECULE
*****
 38 41 0 0 0
SMALL
GASTEIGER

@<TRIPOS>ATOM
      1 C          63.2122   86.7031   15.5315 C.ar    1  UNK1        0.1512
      2 O          62.9737   87.6608   16.6611 O.2     1  UNK1       -0.4351
      3 C          62.6822   86.8590   17.8948 C.ar    1  UNK1        0.2849
      4 N          62.7405   85.4057   17.5278 N.ar    1  UNK1       -0.1999
      5 C          63.0681   85.3094   16.0672 C.ar    1  UNK1        0.1681
      6 C          63.2242   84.0419   15.2803 C.2     1  UNK1        0.2666
      7 O          64.2255   83.0109   15.7099 O.2     1  UNK1       -0.2684
      8 N          62.3790   83.8054   14.0639 N.am    2  PHE2       -0.2960
      9 H          61.7219   84.4821   13.7820 H       2  PHE2        0.1501
     10 CA         62.5351   82.5379   13.2771 C.3     2  PHE2        0.1127
     11 C          62.0766   81.2332   13.8580 C.2     2  PHE2        0.0685
     12 O          60.6157   80.9909   14.0974 O.co2   2  PHE2       -0.5475
     13 OXT        63.0788   80.1708   14.1997 O.co2   2  PHE2       -0.5475
     14 CB         63.1497   82.5751   11.9093 C.3     2  PHE2        0.0516
     15 CG         62.9183   83.7568   11.0149 C.ar    2  PHE2       -0.0201
     16 CD1        63.5183   83.7859    9.6404 C.ar    2  PHE2       -0.0042
     17 CE1        63.2869   84.9676    8.7459 C.ar    2  PHE2       -0.0003
     18 CZ         62.4556   86.1201    9.2260 C.ar    2  PHE2       -0.0000
     19 CE2        61.8556   86.0910   10.6005 C.ar    2  PHE2       -0.0003
     20 CD2        62.0870   84.9093   11.4949 C.ar    2  PHE2       -0.0042
     21 C          63.5377   87.0740   14.1151 C.3     1  UNK1        0.0926
     22 C          65.0012   91.2195   13.1541 C.ar    1  UNK1        0.0000
     23 C          64.0283   90.5367   12.2391 C.ar    1  UNK1       -0.0003
     24 C          63.5405   89.1548   12.5595 C.ar    1  UNK1       -0.0038
     25 C          64.0256   88.4558   13.7948 C.ar    1  UNK1       -0.0146
     26 C          64.9984   89.1386   14.7098 C.ar    1  UNK1       -0.0038
     27 C          65.4862   90.5204   14.3895 C.ar    1  UNK1       -0.0003
     28 C          65.8539   94.5170   11.1172 C.ar    1  UNK1        0.0503
     29 C          66.4646   95.3649   12.1932 C.ar    1  UNK1        0.0147
     30 C          66.5876   94.8311   13.5896 C.ar    1  UNK1        0.0013
     31 C          66.0998   93.4492   13.9099 C.ar    1  UNK1        0.0001
     32 C          65.4890   92.6013   12.8338 C.ar    1  UNK1        0.0012
     33 C          65.3661   93.1352   11.4375 C.ar    1  UNK1        0.0147
     34 C          66.8204   95.6724    7.4455 C.3     1  UNK1        0.0949
     35 C          66.9433   95.1386    8.8419 C.2     1  UNK1        0.2266
     36 O          68.2787   94.6925    9.3595 O.2     1  UNK1       -0.2748
     37 N          65.7309   95.0508    9.7207 N.am    1  UNK1       -0.2839
     38 H          64.8545   95.3436    9.3811 H       1  UNK1        0.1549
@<TRIPOS>UNITY_ATOM_ATTR
12 1
charge -1
@<TRIPOS>BOND
     1    34    35    1
     2    35    36    2
     3    35    37   am
     4    37    28    1
     5    28    29   ar
     6    29    30   ar
     7    30    31   ar
     8    31    32   ar
     9    32    22    1
    10    22    23   ar
    11    23    24   ar
    12    24    25   ar
    13    25    21    1
    14    21     1    1
    15     1     2   ar
    16     2     3   ar
    17     3     4   ar
    18     4     5   ar
    19     5     6    1
    20     6     7    2
    21     6     8   am
    22     8    10    1
    23    10    14    1
    24    14    15    1
    25    15    16   ar
    26    16    17   ar
    27    17    18   ar
    28    18    19   ar
    29    19    20   ar
    30    10    11    1
    31    11    12   ar
    32    11    13   ar
    33    25    26   ar
    34    26    27   ar
    35    32    33   ar
    36    33    28   ar
    37    27    22   ar
    38     5     1   ar
    39    20    15   ar
    40    37    38    1
    41     8     9    1
@<TRIPOS>MOLECULE
*****
 38 41 0 0 0
SMALL
GASTEIGER

@<TRIPOS>ATOM
      1 C          64.3611   90.7915   14.8415 C.ar    1  UNK1        0.1512
      2 O          64.5163   92.2390   15.2027 O.2     1  UNK1       -0.4351
      3 C          63.8491   92.4603   16.5277 C.ar    1  UNK1        0.2849
      4 N          63.2814   91.1494   16.9855 N.ar    1  UNK1       -0.1999
      5 C          63.5979   90.1180   15.9433 C.ar    1  UNK1        0.1681
      6 C          63.2179   88.6679   15.9941 C.2     1  UNK1        0.2666
      7 O          61.8410   88.2683   16.4352 O.2     1  UNK1       -0.2684
      8 N          64.2148   87.6173   15.6037 N.am    2  PHE2       -0.2960
      9 H          65.1185   87.8795   15.3142 H       2  PHE2        0.1501
     10 CA         63.8348   86.1671   15.6545 C.3     2  PHE2        0.1127
     11 C          62.6834   85.7229   16.5072 C.2     2  PHE2        0.0685
     12 O          62.7629   85.8491   17.9998 O.co2   2  PHE2       -0.5475
     13 OXT        61.4525   85.1524   15.8673 O.co2   2  PHE2       -0.5475
     14 CB         64.6061   85.1611   14.8527 C.3     2  PHE2        0.0516
     15 CG         63.8782   84.1613   14.0038 C.ar    2  PHE2       -0.0201
     16 CD1        63.5383   82.8106   14.5608 C.ar    2  PHE2       -0.0042
     17 CE1        62.8104   81.8108   13.7120 C.ar    2  PHE2       -0.0003
     18 CZ         62.4225   82.1616   12.3061 C.ar    2  PHE2       -0.0000
     19 CE2        62.7624   83.5122   11.7491 C.ar    2  PHE2       -0.0003
     20 CD2        63.4903   84.5121   12.5980 C.ar    2  PHE2       -0.0042
     21 C          64.8783   90.1330   13.5970 C.3     1  UNK1        0.0926
     22 C          61.9998   88.6726   10.4615 C.ar    1  UNK1        0.0000
     23 C          62.4645   90.0987   10.4470 C.ar    1  UNK1       -0.0003
     24 C          63.4241   90.5855   11.4922 C.ar    1  UNK1       -0.0038
     25 C          63.9188   89.6462   12.5518 C.ar    1  UNK1       -0.0146
     26 C          63.4540   88.2201   12.5663 C.ar    1  UNK1       -0.0038
     27 C          62.4945   87.7333   11.5212 C.ar    1  UNK1       -0.0003
     28 C          59.2413   88.6805    7.6083 C.ar    1  UNK1        0.0503
     29 C          59.1212   87.2122    7.3260 C.ar    1  UNK1        0.0147
     30 C          59.9607   86.2308    8.0889 C.ar    1  UNK1        0.0013
     31 C          60.9202   86.7176    9.1340 C.ar    1  UNK1        0.0001
     32 C          61.0402   88.1858    9.4163 C.ar    1  UNK1        0.0012
     33 C          60.2008   89.1673    8.6535 C.ar    1  UNK1        0.0147
     34 C          58.1801   91.4745    4.9973 C.3     1  UNK1        0.0949
     35 C          59.0195   90.4930    5.7601 C.2     1  UNK1        0.2266
     36 O          60.4767   90.3423    5.4376 O.2     1  UNK1       -0.2748
     37 N          58.4018   89.6621    6.8455 N.am    1  UNK1       -0.2839
     38 H          57.4454   89.7609    7.0572 H       1  UNK1        0.1549
@<TRIPOS>UNITY_ATOM_ATTR
12 1
charge -1
@<TRIPOS>BOND
     1    34    35    1
     2    35    36    2
     3    35    37   am
     4    37    28    1
     5    28    29   ar
     6    29    30   ar
     7    30    31   ar
     8    31    32   ar
     9    32    22    1
    10    22    23   ar
    11    23    24   ar
    12    24    25   ar
    13    25    21    1
    14    21     1    1
    15     1     2   ar
    16     2     3   ar
    17     3     4   ar
    18     4     5   ar
    19     5     6    1
    20     6     7    2
    21     6     8   am
    22     8    10    1
    23    10    14    1
    24    14    15    1
    25    15    16   ar
    26    16    17   ar
    27    17    18   ar
    28    18    19   ar
    29    19    20   ar
    30    10    11    1
    31    11    12   ar
    32    11    13   ar
    33    25    26   ar
    34    26    27   ar
    35    32    33   ar
    36    33    28   ar
    37    27    22   ar
    38     5     1   ar
    39    20    15   ar
    40    37    38    1
    41     8     9    1
