@<TRIPOS>MOLECULE
*****
 33 36 0 0 0
SMALL
GASTEIGER

@<TRIPOS>ATOM
      1 C          61.9133   89.0578   11.1423 C.ar    1  UNL1        0.0949
      2 C          60.7844   89.4341   10.2291 C.ar    1  UNL1        0.1454
      3 F          60.1313   90.7783   10.3583 F       1  UNL1       -0.2040
      4 C          60.3086   88.4662    9.1866 C.ar    1  UNL1        0.0312
      5 C          60.9617   87.1220    9.0574 C.ar    1  UNL1        0.0204
      6 C          62.0906   86.7457    9.9706 C.ar    1  UNL1        0.0924
      7 C          62.5664   87.7136   11.0130 C.ar    1  UNL1        0.1598
      8 F          63.6953   87.3374   11.9263 F       1  UNL1       -0.2026
      9 C          62.3892   90.0257   12.1849 C.2     1  UNL1        0.2006
     10 O          61.7609   90.0298   13.5468 O.2     1  UNL1       -0.2866
     11 C          65.0952   90.7749   14.0786 C.2     1  UNL1        0.0659
     12 C          66.3585   91.2737   14.7152 C.2     1  UNL1        0.0573
     13 C          67.2041   92.2907   14.0076 C.2     1  UNL1        0.2361
     14 N          66.7865   92.8088   12.6633 N.2     1  UNL1       -0.0340
     15 C          65.5232   92.3100   12.0267 C.2     1  UNL1        0.3601
     16 N          64.8615   92.6349   10.7203 N.2     1  UNL1       -0.0342
     17 C          63.6070   91.8187   10.6205 C.2     1  UNL1        0.2354
     18 C          63.4933   90.9895   11.8653 C.2     1  UNL1        0.0799
     19 C          64.6776   91.2931   12.7343 C.3     1  UNL1        0.1729
     20 N          63.4040   88.7410   15.4938 N.1     1  UNL1       -0.1911
     21 C          64.2496   89.7580   14.7862 C.1     1  UNL1        0.0971
     22 N          62.7437   85.4016    9.8413 N.pl3   1  UNL1       -0.2128
     23 H          63.2121   85.1598    9.0099 H       1  UNL1        0.1738
     24 S          62.6831   84.4258   10.9790 S.O2    1  UNL1        0.0737
     25 O          63.7936   83.6320   10.3573 O.2     1  UNL1       -0.1499
     26 O          61.5725   85.2196   11.6007 O.2     1  UNL1       -0.1499
     27 C          62.6224   83.4501   12.1166 C.ar    1  UNL1        0.1274
     28 C          62.6320   83.9468   13.5320 C.ar    1  UNL1        0.0203
     29 C          62.5713   82.9712   14.6697 C.ar    1  UNL1        0.0037
     30 C          62.5011   81.4988   14.3921 C.ar    1  UNL1        0.0297
     31 C          62.4915   81.0021   12.9767 C.ar    1  UNL1        0.1415
     32 F          62.4212   79.5297   12.6991 F       1  UNL1       -0.2041
     33 C          62.5522   81.9777   11.8390 C.ar    1  UNL1        0.0498
@<TRIPOS>BOND
     1    20    21    3
     2    21    11    1
     3    11    12    2
     4    12    13    1
     5    13    14    2
     6    14    15    1
     7    15    16    2
     8    16    17    1
     9    17    18    2
    10    18     9    1
    11     9    10    2
    12     9     1    1
    13     1     2   ar
    14     2     3    1
    15     2     4   ar
    16     4     5   ar
    17     5     6   ar
    18     6    22    1
    19    22    24    1
    20    24    25    2
    21    24    26    2
    22    24    27    1
    23    27    28   ar
    24    28    29   ar
    25    29    30   ar
    26    30    31   ar
    27    31    32    1
    28    31    33   ar
    29     6     7   ar
    30     7     8    1
    31    18    19    1
    32    19    11    1
    33    19    15    1
    34     7     1   ar
    35    33    27   ar
    36    22    23    1
@<TRIPOS>MOLECULE
*****
 33 36 0 0 0
SMALL
GASTEIGER

@<TRIPOS>ATOM
      1 C          63.5010   89.6710   12.6293 C.ar    1  UNL1        0.0949
      2 C          62.8066   89.3795   11.3321 C.ar    1  UNL1        0.1454
      3 F          62.4352   90.5036   10.4110 F       1  UNL1       -0.2040
      4 C          62.4837   87.9638   10.9560 C.ar    1  UNL1        0.0312
      5 C          62.8551   86.8397   11.8770 C.ar    1  UNL1        0.0204
      6 C          63.5495   87.1312   13.1742 C.ar    1  UNL1        0.0924
      7 C          63.8724   88.5468   13.5504 C.ar    1  UNL1        0.1598
      8 F          64.5669   88.8385   14.8476 F       1  UNL1       -0.2026
      9 C          63.8241   91.0868   13.0055 C.2     1  UNL1        0.2006
     10 O          62.7443   91.9902   13.5228 O.2     1  UNL1       -0.2866
     11 C          65.9353   92.0460   15.4739 C.2     1  UNL1        0.0659
     12 C          67.0435   92.5211   16.3661 C.2     1  UNL1        0.0573
     13 C          68.3473   92.9645   15.7715 C.2     1  UNL1        0.2361
     14 N          68.5429   92.9327   14.2846 N.2     1  UNL1       -0.0340
     15 C          67.4347   92.4575   13.3924 C.2     1  UNL1        0.3601
     16 N          67.3364   92.3162   11.9024 N.2     1  UNL1       -0.0342
     17 C          65.9719   91.7855   11.5760 C.2     1  UNL1        0.2354
     18 C          65.2269   91.5988   12.8644 C.2     1  UNL1        0.0799
     19 C          66.1309   92.0142   13.9871 C.3     1  UNL1        0.1729
     20 N          63.3277   91.1593   16.6631 N.1     1  UNL1       -0.1911
     21 C          64.6315   91.6026   16.0685 C.1     1  UNL1        0.0971
     22 N          63.9209   86.0070   14.0953 N.pl3   1  UNL1       -0.2128
     23 H          64.4710   86.1848   14.8921 H       1  UNL1        0.1738
     24 S          63.4541   84.6120   13.8022 S.O2    1  UNL1        0.0737
     25 O          64.7323   84.3389   13.0662 O.2     1  UNL1       -0.1499
     26 O          62.1759   84.8850   14.5382 O.2     1  UNL1       -0.1499
     27 C          62.9872   83.2170   13.5092 C.ar    1  UNL1        0.1274
     28 C          62.2383   82.4420   14.5526 C.ar    1  UNL1        0.0203
     29 C          61.7714   81.0469   14.2596 C.ar    1  UNL1        0.0037
     30 C          62.0534   80.4268   12.9233 C.ar    1  UNL1        0.0297
     31 C          62.8023   81.2018   11.8799 C.ar    1  UNL1        0.1415
     32 F          63.0843   80.5816   10.5435 F       1  UNL1       -0.2041
     33 C          63.2692   82.5968   12.1728 C.ar    1  UNL1        0.0498
@<TRIPOS>BOND
     1    20    21    3
     2    21    11    1
     3    11    12    2
     4    12    13    1
     5    13    14    2
     6    14    15    1
     7    15    16    2
     8    16    17    1
     9    17    18    2
    10    18     9    1
    11     9    10    2
    12     9     1    1
    13     1     2   ar
    14     2     3    1
    15     2     4   ar
    16     4     5   ar
    17     5     6   ar
    18     6    22    1
    19    22    24    1
    20    24    25    2
    21    24    26    2
    22    24    27    1
    23    27    28   ar
    24    28    29   ar
    25    29    30   ar
    26    30    31   ar
    27    31    32    1
    28    31    33   ar
    29     6     7   ar
    30     7     8    1
    31    18    19    1
    32    19    11    1
    33    19    15    1
    34     7     1   ar
    35    33    27   ar
    36    22    23    1
@<TRIPOS>MOLECULE
*****
 33 36 0 0 0
SMALL
GASTEIGER

@<TRIPOS>ATOM
      1 C          62.6367   86.5080   11.9399 C.ar    1  UNL1        0.0949
      2 C          61.6050   86.1420   10.9145 C.ar    1  UNL1        0.1454
      3 F          61.4350   84.7106   10.4992 F       1  UNL1       -0.2040
      4 C          60.7431   87.2073   10.3045 C.ar    1  UNL1        0.0312
      5 C          60.9131   88.6386   10.7197 C.ar    1  UNL1        0.0204
      6 C          61.9449   89.0046   11.7451 C.ar    1  UNL1        0.0924
      7 C          62.8067   87.9393   12.3552 C.ar    1  UNL1        0.1598
      8 F          63.8385   88.3052   13.3807 F       1  UNL1       -0.2026
      9 C          63.4987   85.4426   12.5501 C.2     1  UNL1        0.2006
     10 O          64.3397   85.7555   13.7520 O.2     1  UNL1       -0.2866
     11 C          62.3058   82.5839   13.9195 C.2     1  UNL1        0.0659
     12 C          61.8638   81.2014   14.2982 C.2     1  UNL1        0.0573
     13 C          62.0947   80.0562   13.3574 C.2     1  UNL1        0.2361
     14 N          62.7675   80.2934   12.0379 N.2     1  UNL1       -0.0340
     15 C          63.2095   81.6759   11.6593 C.2     1  UNL1        0.3601
     16 N          63.8929   82.2114   10.4361 N.2     1  UNL1       -0.0342
     17 C          64.0845   83.6875   10.6209 C.2     1  UNL1        0.2354
     18 C          63.5194   84.0644   11.9583 C.2     1  UNL1        0.0799
     19 C          62.9786   82.8211   12.6001 C.3     1  UNL1        0.1729
     20 N          61.8440   84.8744   15.8011 N.1     1  UNL1       -0.1911
     21 C          62.0749   83.7292   14.8603 C.1     1  UNL1        0.0971
     22 N          62.1148   90.4359   12.1604 N.pl3   1  UNL1       -0.2128
     23 H          61.3272   91.0202   12.2470 H       1  UNL1        0.1738
     24 S          63.4848   90.9770   12.4437 S.O2    1  UNL1        0.0737
     25 O          63.1633   91.0242   13.9081 O.2     1  UNL1       -0.1499
     26 O          63.8063   90.9299   10.9794 O.2     1  UNL1       -0.1499
     27 C          64.8548   91.5181   12.7270 C.ar    1  UNL1        0.1274
     28 C          65.5267   92.4170   11.7317 C.ar    1  UNL1        0.0203
     29 C          66.8967   92.9582   12.0148 C.ar    1  UNL1        0.0037
     30 C          67.5949   92.6005   13.2933 C.ar    1  UNL1        0.0297
     31 C          66.9230   91.7016   14.2886 C.ar    1  UNL1        0.1415
     32 F          67.6212   91.3439   15.5671 F       1  UNL1       -0.2041
     33 C          65.5530   91.1604   14.0055 C.ar    1  UNL1        0.0498
@<TRIPOS>BOND
     1    20    21    3
     2    21    11    1
     3    11    12    2
     4    12    13    1
     5    13    14    2
     6    14    15    1
     7    15    16    2
     8    16    17    1
     9    17    18    2
    10    18     9    1
    11     9    10    2
    12     9     1    1
    13     1     2   ar
    14     2     3    1
    15     2     4   ar
    16     4     5   ar
    17     5     6   ar
    18     6    22    1
    19    22    24    1
    20    24    25    2
    21    24    26    2
    22    24    27    1
    23    27    28   ar
    24    28    29   ar
    25    29    30   ar
    26    30    31   ar
    27    31    32    1
    28    31    33   ar
    29     6     7   ar
    30     7     8    1
    31    18    19    1
    32    19    11    1
    33    19    15    1
    34     7     1   ar
    35    33    27   ar
    36    22    23    1
@<TRIPOS>MOLECULE
*****
 33 36 0 0 0
SMALL
GASTEIGER

@<TRIPOS>ATOM
      1 C          62.2535   88.3011   11.6484 C.ar    1  UNL1        0.0949
      2 C          61.4691   87.9788   10.4111 C.ar    1  UNL1        0.1454
      3 F          60.6521   89.0442    9.7422 F       1  UNL1       -0.2040
      4 C          61.5018   86.5910    9.8428 C.ar    1  UNL1        0.0312
      5 C          62.3188   85.5256   10.5117 C.ar    1  UNL1        0.0204
      6 C          63.1031   85.8480   11.7490 C.ar    1  UNL1        0.0924
      7 C          63.0704   87.2357   12.3173 C.ar    1  UNL1        0.1598
      8 F          63.8548   87.5582   13.5547 F       1  UNL1       -0.2026
      9 C          62.2208   89.6890   12.2168 C.2     1  UNL1        0.2006
     10 O          61.1227   90.0885   13.1572 O.2     1  UNL1       -0.2866
     11 C          64.5144   91.1246   14.2536 C.2     1  UNL1        0.0659
     12 C          65.6145   91.8860   14.9319 C.2     1  UNL1        0.0573
     13 C          66.4855   92.8132   14.1371 C.2     1  UNL1        0.2361
     14 N          66.2564   92.9791   12.6641 N.2     1  UNL1       -0.0340
     15 C          65.1563   92.2178   11.9858 C.2     1  UNL1        0.3601
     16 N          64.6955   92.1773   10.5589 N.2     1  UNL1       -0.0342
     17 C          63.5398   91.2251   10.4717 C.2     1  UNL1        0.2354
     18 C          63.2863   90.6770   11.8448 C.2     1  UNL1        0.0799
     19 C          64.2853   91.2905   12.7805 C.3     1  UNL1        0.1729
     20 N          62.7725   89.2702   15.8431 N.1     1  UNL1       -0.1911
     21 C          63.6434   90.1974   15.0483 C.1     1  UNL1        0.0971
     22 N          63.9201   84.7826   12.4180 N.pl3   1  UNL1       -0.2128
     23 H          64.6887   85.0320   12.9803 H       1  UNL1        0.1738
     24 S          63.5659   83.3371   12.2301 S.O2    1  UNL1        0.0737
     25 O          64.6958   83.1870   11.2550 O.2     1  UNL1       -0.1499
     26 O          62.4361   83.4872   13.2052 O.2     1  UNL1       -0.1499
     27 C          63.2117   81.8918   12.0423 C.ar    1  UNL1        0.1274
     28 C          62.7930   81.0630   13.2204 C.ar    1  UNL1        0.0203
     29 C          62.4388   79.6175   13.0327 C.ar    1  UNL1        0.0037
     30 C          62.5032   79.0008   11.6669 C.ar    1  UNL1        0.0297
     31 C          62.9220   79.8296   10.4888 C.ar    1  UNL1        0.1415
     32 F          62.9864   79.2129    9.1229 F       1  UNL1       -0.2041
     33 C          63.2762   81.2750   10.6765 C.ar    1  UNL1        0.0498
@<TRIPOS>BOND
     1    20    21    3
     2    21    11    1
     3    11    12    2
     4    12    13    1
     5    13    14    2
     6    14    15    1
     7    15    16    2
     8    16    17    1
     9    17    18    2
    10    18     9    1
    11     9    10    2
    12     9     1    1
    13     1     2   ar
    14     2     3    1
    15     2     4   ar
    16     4     5   ar
    17     5     6   ar
    18     6    22    1
    19    22    24    1
    20    24    25    2
    21    24    26    2
    22    24    27    1
    23    27    28   ar
    24    28    29   ar
    25    29    30   ar
    26    30    31   ar
    27    31    32    1
    28    31    33   ar
    29     6     7   ar
    30     7     8    1
    31    18    19    1
    32    19    11    1
    33    19    15    1
    34     7     1   ar
    35    33    27   ar
    36    22    23    1
@<TRIPOS>MOLECULE
*****
 33 36 0 0 0
SMALL
GASTEIGER

@<TRIPOS>ATOM
      1 C          62.6281   86.5127   11.8824 C.ar    1  UNL1        0.0949
      2 C          61.6127   86.0926   10.8613 C.ar    1  UNL1        0.1454
      3 F          61.4760   84.6455   10.4908 F       1  UNL1       -0.2040
      4 C          60.7341   87.1196   10.2108 C.ar    1  UNL1        0.0312
      5 C          60.8708   88.5667   10.5813 C.ar    1  UNL1        0.0204
      6 C          61.8862   88.9868   11.6023 C.ar    1  UNL1        0.0924
      7 C          62.7648   87.9597   12.2528 C.ar    1  UNL1        0.1598
      8 F          63.7802   88.3798   13.2739 F       1  UNL1       -0.2026
      9 C          63.5068   85.4856   12.5330 C.2     1  UNL1        0.2006
     10 O          64.3062   85.8453   13.7501 O.2     1  UNL1       -0.2866
     11 C          62.2966   82.6254   13.8838 C.2     1  UNL1        0.0659
     12 C          61.8615   81.2404   14.2612 C.2     1  UNL1        0.0573
     13 C          62.1650   80.0854   13.3535 C.2     1  UNL1        0.2361
     14 N          62.9036   80.3154   12.0684 N.2     1  UNL1       -0.0340
     15 C          63.3388   81.7004   11.6910 C.2     1  UNL1        0.3601
     16 N          64.0771   82.2303   10.4977 N.2     1  UNL1       -0.0342
     17 C          64.2299   83.7127   10.6678 C.2     1  UNL1        0.2354
     18 C          63.5860   84.0990   11.9663 C.2     1  UNL1        0.0799
     19 C          63.0353   82.8554   12.5987 C.3     1  UNL1        0.1729
     20 N          61.6896   84.9354   15.6991 N.1     1  UNL1       -0.1911
     21 C          61.9931   83.7804   14.7915 C.1     1  UNL1        0.0971
     22 N          62.0229   90.4338   11.9728 N.pl3   1  UNL1       -0.2128
     23 H          61.2320   90.9456   12.2589 H       1  UNL1        0.1738
     24 S          63.3646   91.1012   11.9073 S.O2    1  UNL1        0.0737
     25 O          63.3757   90.9328   10.4169 O.2     1  UNL1       -0.1499
     26 O          63.3535   91.2697   13.3978 O.2     1  UNL1       -0.1499
     27 C          64.7063   91.7687   11.8420 C.ar    1  UNL1        0.1274
     28 C          65.5747   91.8283   13.0637 C.ar    1  UNL1        0.0203
     29 C          66.9164   92.4957   12.9984 C.ar    1  UNL1        0.0037
     30 C          67.3899   93.1035   11.7114 C.ar    1  UNL1        0.0297
     31 C          66.5216   93.0438   10.4897 C.ar    1  UNL1        0.1415
     32 F          66.9951   93.6516    9.2027 F       1  UNL1       -0.2041
     33 C          65.1798   92.3764   10.5550 C.ar    1  UNL1        0.0498
@<TRIPOS>BOND
     1    20    21    3
     2    21    11    1
     3    11    12    2
     4    12    13    1
     5    13    14    2
     6    14    15    1
     7    15    16    2
     8    16    17    1
     9    17    18    2
    10    18     9    1
    11     9    10    2
    12     9     1    1
    13     1     2   ar
    14     2     3    1
    15     2     4   ar
    16     4     5   ar
    17     5     6   ar
    18     6    22    1
    19    22    24    1
    20    24    25    2
    21    24    26    2
    22    24    27    1
    23    27    28   ar
    24    28    29   ar
    25    29    30   ar
    26    30    31   ar
    27    31    32    1
    28    31    33   ar
    29     6     7   ar
    30     7     8    1
    31    18    19    1
    32    19    11    1
    33    19    15    1
    34     7     1   ar
    35    33    27   ar
    36    22    23    1
@<TRIPOS>MOLECULE
*****
 33 36 0 0 0
SMALL
GASTEIGER

@<TRIPOS>ATOM
      1 C          63.5196   89.5783   12.4330 C.ar    1  UNL1        0.0949
      2 C          62.6712   89.2971   11.2284 C.ar    1  UNL1        0.1454
      3 F          62.2897   90.4138   10.3025 F       1  UNL1       -0.2040
      4 C          62.2042   87.8991   10.9498 C.ar    1  UNL1        0.0312
      5 C          62.5857   86.7824   11.8757 C.ar    1  UNL1        0.0204
      6 C          63.4342   87.0636   13.0804 C.ar    1  UNL1        0.0924
      7 C          63.9011   88.4616   13.3590 C.ar    1  UNL1        0.1598
      8 F          64.7495   88.7429   14.5636 F       1  UNL1       -0.2026
      9 C          63.9866   90.9763   12.7117 C.2     1  UNL1        0.2006
     10 O          64.0927   91.9687   11.5920 O.2     1  UNL1       -0.2866
     11 C          66.8327   92.4826   13.7608 C.2     1  UNL1        0.0659
     12 C          67.9801   93.1384   14.4704 C.2     1  UNL1        0.0573
     13 C          67.9172   93.3603   15.9525 C.2     1  UNL1        0.2361
     14 N          66.7069   92.9265   16.7251 N.2     1  UNL1       -0.0340
     15 C          65.5596   92.2707   16.0156 C.2     1  UNL1        0.3601
     16 N          64.2455   91.7409   16.5082 N.2     1  UNL1       -0.0342
     17 C          63.4963   91.1916   15.3306 C.2     1  UNL1        0.2354
     18 C          64.3473   91.3818   14.1101 C.2     1  UNL1        0.0799
     19 C          65.6225   92.0487   14.5334 C.3     1  UNL1        0.1729
     20 N          66.9586   92.0387   10.7965 N.1     1  UNL1       -0.1911
     21 C          66.8957   92.2606   12.2787 C.1     1  UNL1        0.0971
     22 N          63.8156   85.9469   14.0063 N.pl3   1  UNL1       -0.2128
     23 H          64.3498   86.1357   14.8115 H       1  UNL1        0.1738
     24 S          63.3833   84.5424   13.7055 S.O2    1  UNL1        0.0737
     25 O          62.0833   84.7914   14.4112 O.2     1  UNL1       -0.1499
     26 O          64.6833   84.2934   12.9997 O.2     1  UNL1       -0.1499
     27 C          62.9511   83.1379   13.4046 C.ar    1  UNL1        0.1274
     28 C          62.2776   82.3172   14.4643 C.ar    1  UNL1        0.0203
     29 C          61.8454   80.9127   14.1635 C.ar    1  UNL1        0.0037
     30 C          62.0865   80.3288   12.8030 C.ar    1  UNL1        0.0297
     31 C          62.7599   81.1496   11.7433 C.ar    1  UNL1        0.1415
     32 F          63.0011   80.5658   10.3828 F       1  UNL1       -0.2041
     33 C          63.1922   82.5541   12.0441 C.ar    1  UNL1        0.0498
@<TRIPOS>BOND
     1    20    21    3
     2    21    11    1
     3    11    12    2
     4    12    13    1
     5    13    14    2
     6    14    15    1
     7    15    16    2
     8    16    17    1
     9    17    18    2
    10    18     9    1
    11     9    10    2
    12     9     1    1
    13     1     2   ar
    14     2     3    1
    15     2     4   ar
    16     4     5   ar
    17     5     6   ar
    18     6    22    1
    19    22    24    1
    20    24    25    2
    21    24    26    2
    22    24    27    1
    23    27    28   ar
    24    28    29   ar
    25    29    30   ar
    26    30    31   ar
    27    31    32    1
    28    31    33   ar
    29     6     7   ar
    30     7     8    1
    31    18    19    1
    32    19    11    1
    33    19    15    1
    34     7     1   ar
    35    33    27   ar
    36    22    23    1
@<TRIPOS>MOLECULE
*****
 33 36 0 0 0
SMALL
GASTEIGER

@<TRIPOS>ATOM
      1 C          63.8718   88.9278   14.8469 C.ar    1  UNL1        0.0949
      2 C          63.2778   89.6565   16.0158 C.ar    1  UNL1        0.1454
      3 F          63.0495   91.1370   15.9393 F       1  UNL1       -0.2040
      4 C          62.9121   88.9045   17.2610 C.ar    1  UNL1        0.0312
      5 C          63.1404   87.4240   17.3375 C.ar    1  UNL1        0.0204
      6 C          63.7344   86.6953   16.1687 C.ar    1  UNL1        0.0924
      7 C          64.1001   87.4472   14.9234 C.ar    1  UNL1        0.1598
      8 F          64.6941   86.7186   13.7545 F       1  UNL1       -0.2026
      9 C          64.2375   89.6797   13.6015 C.2     1  UNL1        0.2006
     10 O          63.6496   89.2761   12.2819 O.2     1  UNL1       -0.2866
     11 C          64.6724   92.1538   11.3300 C.2     1  UNL1        0.0659
     12 C          65.0513   93.3419   10.4963 C.2     1  UNL1        0.0573
     13 C          66.1105   94.2887   10.9775 C.2     1  UNL1        0.2361
     14 N          66.7910   94.0474   12.2923 N.2     1  UNL1       -0.0340
     15 C          66.4121   92.8594   13.1259 C.2     1  UNL1        0.3601
     16 N          66.9051   92.3671   14.4543 N.2     1  UNL1       -0.0342
     17 C          66.1505   91.1161   14.7942 C.2     1  UNL1        0.2354
     18 C          65.1912   90.8352   13.6758 C.2     1  UNL1        0.0799
     19 C          65.3529   91.9126   12.6448 C.3     1  UNL1        0.1729
     20 N          62.5539   90.2602   10.3676 N.1     1  UNL1       -0.1911
     21 C          63.6132   91.2070   10.8488 C.1     1  UNL1        0.0971
     22 N          63.9626   85.2148   16.2452 N.pl3   1  UNL1       -0.2128
     23 H          64.2941   84.8102   17.0793 H       1  UNL1        0.1738
     24 S          63.6860   84.3506   15.0508 S.O2    1  UNL1        0.0737
     25 O          65.1522   84.0631   14.9191 O.2     1  UNL1       -0.1499
     26 O          62.2197   84.6381   15.1824 O.2     1  UNL1       -0.1499
     27 C          63.4092   83.4864   13.8564 C.ar    1  UNL1        0.1274
     28 C          62.4205   82.3628   13.9566 C.ar    1  UNL1        0.0203
     29 C          62.1436   81.4985   12.7623 C.ar    1  UNL1        0.0037
     30 C          62.8555   81.7579   11.4677 C.ar    1  UNL1        0.0297
     31 C          63.8442   82.8815   11.3675 C.ar    1  UNL1        0.1415
     32 F          64.5560   83.1409   10.0729 F       1  UNL1       -0.2041
     33 C          64.1210   83.7458   12.5618 C.ar    1  UNL1        0.0498
@<TRIPOS>BOND
     1    20    21    3
     2    21    11    1
     3    11    12    2
     4    12    13    1
     5    13    14    2
     6    14    15    1
     7    15    16    2
     8    16    17    1
     9    17    18    2
    10    18     9    1
    11     9    10    2
    12     9     1    1
    13     1     2   ar
    14     2     3    1
    15     2     4   ar
    16     4     5   ar
    17     5     6   ar
    18     6    22    1
    19    22    24    1
    20    24    25    2
    21    24    26    2
    22    24    27    1
    23    27    28   ar
    24    28    29   ar
    25    29    30   ar
    26    30    31   ar
    27    31    32    1
    28    31    33   ar
    29     6     7   ar
    30     7     8    1
    31    18    19    1
    32    19    11    1
    33    19    15    1
    34     7     1   ar
    35    33    27   ar
    36    22    23    1
@<TRIPOS>MOLECULE
*****
 33 36 0 0 0
SMALL
GASTEIGER

@<TRIPOS>ATOM
      1 C          63.6001   89.0913   15.4005 C.ar    1  UNL1        0.0949
      2 C          63.0383   88.7577   16.7507 C.ar    1  UNL1        0.1454
      3 F          62.4325   89.8368   17.5985 F       1  UNL1       -0.2040
      4 C          63.0823   87.3451   17.2531 C.ar    1  UNL1        0.0312
      5 C          63.6881   86.2660   16.4054 C.ar    1  UNL1        0.0204
      6 C          64.2499   86.5996   15.0552 C.ar    1  UNL1        0.0924
      7 C          64.2059   88.0122   14.5528 C.ar    1  UNL1        0.1598
      8 F          64.7677   88.3459   13.2025 F       1  UNL1       -0.2026
      9 C          63.5562   90.5040   14.8980 C.2     1  UNL1        0.2006
     10 O          63.5581   91.6462   15.8702 O.2     1  UNL1       -0.2866
     11 C          65.7533   92.3053   13.0546 C.2     1  UNL1        0.0659
     12 C          66.5655   93.0410   12.0305 C.2     1  UNL1        0.0573
     13 C          66.1311   93.0512   10.5948 C.2     1  UNL1        0.2361
     14 N          64.8844   92.3257   10.1833 N.2     1  UNL1       -0.0340
     15 C          64.0721   91.5901   11.2075 C.2     1  UNL1        0.3601
     16 N          62.8073   90.7909   11.1004 N.2     1  UNL1       -0.0342
     17 C          62.4600   90.2867   12.4698 C.2     1  UNL1        0.2354
     18 C          63.5103   90.7744   13.4233 C.2     1  UNL1        0.0799
     19 C          64.5066   91.5799   12.6432 C.3     1  UNL1        0.1729
     20 N          66.6223   92.2850   15.9260 N.1     1  UNL1       -0.1911
     21 C          66.1878   92.2951   14.4903 C.1     1  UNL1        0.0971
     22 N          64.8557   85.5205   14.2074 N.pl3   1  UNL1       -0.2128
     23 H          65.7643   85.6311   13.8449 H       1  UNL1        0.1738
     24 S          64.0771   84.2729   13.9121 S.O2    1  UNL1        0.0737
     25 O          63.3277   84.9961   12.8326 O.2     1  UNL1       -0.1499
     26 O          64.8264   83.5497   14.9917 O.2     1  UNL1       -0.1499
     27 C          63.2985   83.0253   13.6169 C.ar    1  UNL1        0.1274
     28 C          62.2875   82.5210   14.6036 C.ar    1  UNL1        0.0203
     29 C          61.5089   81.2733   14.3084 C.ar    1  UNL1        0.0037
     30 C          61.7413   80.5299   13.0265 C.ar    1  UNL1        0.0297
     31 C          62.7523   81.0342   12.0398 C.ar    1  UNL1        0.1415
     32 F          62.9847   80.2908   10.7578 F       1  UNL1       -0.2041
     33 C          63.5309   82.2819   12.3349 C.ar    1  UNL1        0.0498
@<TRIPOS>BOND
     1    20    21    3
     2    21    11    1
     3    11    12    2
     4    12    13    1
     5    13    14    2
     6    14    15    1
     7    15    16    2
     8    16    17    1
     9    17    18    2
    10    18     9    1
    11     9    10    2
    12     9     1    1
    13     1     2   ar
    14     2     3    1
    15     2     4   ar
    16     4     5   ar
    17     5     6   ar
    18     6    22    1
    19    22    24    1
    20    24    25    2
    21    24    26    2
    22    24    27    1
    23    27    28   ar
    24    28    29   ar
    25    29    30   ar
    26    30    31   ar
    27    31    32    1
    28    31    33   ar
    29     6     7   ar
    30     7     8    1
    31    18    19    1
    32    19    11    1
    33    19    15    1
    34     7     1   ar
    35    33    27   ar
    36    22    23    1
@<TRIPOS>MOLECULE
*****
 33 36 0 0 0
SMALL
GASTEIGER

@<TRIPOS>ATOM
      1 C          62.9746   86.1384   12.1390 C.ar    1  UNL1        0.0949
      2 C          62.2278   85.8871   10.8626 C.ar    1  UNL1        0.1454
      3 F          62.2180   84.5148   10.2571 F       1  UNL1       -0.2040
      4 C          61.4908   87.0082   10.1918 C.ar    1  UNL1        0.0312
      5 C          61.5006   88.3805   10.7974 C.ar    1  UNL1        0.0204
      6 C          62.2474   88.6318   12.0738 C.ar    1  UNL1        0.0924
      7 C          62.9844   87.5107   12.7445 C.ar    1  UNL1        0.1598
      8 F          63.7312   87.7619   14.0210 F       1  UNL1       -0.2026
      9 C          63.7117   85.0173   12.8099 C.2     1  UNL1        0.2006
     10 O          65.1923   84.8730   12.6188 O.2     1  UNL1       -0.2866
     11 C          63.1696   81.7273   12.2163 C.2     1  UNL1        0.0659
     12 C          62.7981   80.2743   12.1893 C.2     1  UNL1        0.0573
     13 C          62.0071   79.6813   13.3174 C.2     1  UNL1        0.2361
     14 N          61.5875   80.5413   14.4725 N.2     1  UNL1       -0.0340
     15 C          61.9589   81.9943   14.4995 C.2     1  UNL1        0.3601
     16 N          61.6880   83.0812   15.4972 N.2     1  UNL1       -0.0342
     17 C          62.3116   84.3459   14.9857 C.2     1  UNL1        0.2354
     18 C          62.9679   84.0407   13.6719 C.2     1  UNL1        0.0799
     19 C          62.7499   82.5873   13.3714 C.3     1  UNL1        0.1729
     20 N          64.7517   82.9133    9.9601 N.1     1  UNL1       -0.1911
     21 C          63.9606   82.3203   11.0882 C.1     1  UNL1        0.0971
     22 N          62.2572   90.0041   12.6793 N.pl3   1  UNL1       -0.2128
     23 H          61.4087   90.4435   12.9165 H       1  UNL1        0.1738
     24 S          63.5597   90.7069   12.9234 S.O2    1  UNL1        0.0737
     25 O          63.7996   90.7761   11.4443 O.2     1  UNL1       -0.1499
     26 O          63.3198   90.6377   14.4025 O.2     1  UNL1       -0.1499
     27 C          64.8621   91.4096   13.1676 C.ar    1  UNL1        0.1274
     28 C          65.3382   92.4611   12.2095 C.ar    1  UNL1        0.0203
     29 C          66.6407   93.1639   12.4537 C.ar    1  UNL1        0.0037
     30 C          67.4672   92.8153   13.6559 C.ar    1  UNL1        0.0297
     31 C          66.9911   91.7638   14.6140 C.ar    1  UNL1        0.1415
     32 F          67.8176   91.4152   15.8162 F       1  UNL1       -0.2041
     33 C          65.6886   91.0610   14.3698 C.ar    1  UNL1        0.0498
@<TRIPOS>BOND
     1    20    21    3
     2    21    11    1
     3    11    12    2
     4    12    13    1
     5    13    14    2
     6    14    15    1
     7    15    16    2
     8    16    17    1
     9    17    18    2
    10    18     9    1
    11     9    10    2
    12     9     1    1
    13     1     2   ar
    14     2     3    1
    15     2     4   ar
    16     4     5   ar
    17     5     6   ar
    18     6    22    1
    19    22    24    1
    20    24    25    2
    21    24    26    2
    22    24    27    1
    23    27    28   ar
    24    28    29   ar
    25    29    30   ar
    26    30    31   ar
    27    31    32    1
    28    31    33   ar
    29     6     7   ar
    30     7     8    1
    31    18    19    1
    32    19    11    1
    33    19    15    1
    34     7     1   ar
    35    33    27   ar
    36    22    23    1
