@<TRIPOS>MOLECULE
*****
 34 38 0 0 0
SMALL
GASTEIGER

@<TRIPOS>ATOM
      1 C          64.2129   83.0886   14.6442 C.3     1  UNL1        0.2159
      2 N          63.7710   84.2983   13.8751 N.am    1  UNL1       -0.1449
      3 C          64.2351   85.6625   14.2915 C.2     1  UNL1        0.3728
      4 N          65.1410   85.8172   15.4770 N.2     1  UNL1       -0.1329
      5 N          63.7932   86.8722   13.5224 N.pl3   1  UNL1       -0.2247
      6 C          62.8873   86.7176   12.3369 C.3     1  UNL1        0.1559
      7 C          62.2906   87.7185   11.3924 C.3     1  UNL1        0.1327
      8 N          61.4578   86.9728   10.3922 N.pl3   1  UNL1       -0.2740
      9 C          61.5398   85.5110   10.7186 C.3     1  UNL1        0.1079
     10 C          62.4232   85.3533   11.9205 C.3     1  UNL1        0.1498
     11 C          62.8651   84.1436   12.6896 C.2     1  UNL1        0.2919
     12 O          62.4011   82.7793   12.2732 O.2     1  UNL1       -0.2563
     13 H          65.4311   85.0232   15.9818 H       1  UNL1        0.3058
     14 H          64.0978   87.7677   13.7957 H       1  UNL1        0.2454
     15 C          60.6796   87.5819    9.2637 C.ar    1  UNL1        0.2204
     16 N          60.7547   89.0587    9.0121 N.ar    1  UNL1       -0.2097
     17 C          59.9765   89.6677    7.8836 C.ar    1  UNL1        0.1330
     18 C          59.1232   88.8000    7.0067 C.ar    1  UNL1        0.1784
     19 F          58.3451   89.4091    5.8783 F       1  UNL1       -0.2009
     20 C          59.0482   87.3231    7.2583 C.ar    1  UNL1        0.1330
     21 N          59.8264   86.7141    8.3869 N.ar    1  UNL1       -0.2097
     22 C          63.2674   88.1380   12.6331 C.ar    1  UNL1        0.0397
     23 C          64.2197   88.5919   13.6995 C.ar    1  UNL1        0.0057
     24 C          64.3029   90.0884   13.6403 C.ar    1  UNL1        0.0069
     25 C          63.4020   90.5595   12.5374 C.ar    1  UNL1        0.0352
     26 S          62.7620   89.3540   11.9149 S.2     1  UNL1       -0.0878
     27 C          65.1400   90.9607   14.5282 C.ar    1  UNL1        0.0050
     28 C          66.5652   91.2537   14.1638 C.ar    1  UNL1        0.0298
     29 C          67.4023   92.1260   15.0517 C.ar    1  UNL1        0.1424
     30 F          68.8275   92.4189   14.6873 F       1  UNL1       -0.2041
     31 C          66.8141   92.7054   16.3041 C.ar    1  UNL1        0.0592
     32 C          65.3889   92.4124   16.6685 C.ar    1  UNL1        0.1424
     33 F          64.8006   92.9918   17.9208 F       1  UNL1       -0.2041
     34 C          64.5518   91.5401   15.7806 C.ar    1  UNL1        0.0298
@<TRIPOS>BOND
     1     1     2    1
     2     2     3    1
     3     3     4    2
     4     3     5    1
     5     5     6    1
     6     6    22    1
     7    22    23   ar
     8    23    24   ar
     9    24    27    1
    10    27    28   ar
    11    28    29   ar
    12    29    30    1
    13    29    31   ar
    14    31    32   ar
    15    32    33    1
    16    32    34   ar
    17    24    25   ar
    18    25    26   ar
    19     6     7    1
    20     7     8    1
    21     8    15    1
    22    15    16   ar
    23    16    17   ar
    24    17    18   ar
    25    18    19    1
    26    18    20   ar
    27    20    21   ar
    28     8     9    1
    29    10     9    1
    30    10    11    1
    31    11    12    2
    32    11     2   am
    33    10     6    1
    34    26    22   ar
    35    21    15   ar
    36    34    27   ar
    37     4    13    1
    38     5    14    1
@<TRIPOS>MOLECULE
*****
 34 38 0 0 0
SMALL
GASTEIGER

@<TRIPOS>ATOM
      1 C          66.8297   94.6075   11.6932 C.3     1  UNL1        0.2159
      2 N          65.9700   93.4121   11.9797 N.am    1  UNL1       -0.1449
      3 C          64.9353   92.9767   10.9849 C.2     1  UNL1        0.3728
      4 N          64.7603   93.7367    9.7034 N.2     1  UNL1       -0.1329
      5 N          64.0756   91.7813   11.2713 N.pl3   1  UNL1       -0.2247
      6 C          64.2507   91.0214   12.5527 C.3     1  UNL1        0.1559
      7 C          63.5550   89.8132   13.1061 C.3     1  UNL1        0.1327
      8 N          64.1598   89.5020   14.4430 N.pl3   1  UNL1       -0.2740
      9 C          65.2292   90.5178   14.7158 C.3     1  UNL1        0.1079
     10 C          65.2854   91.4569   13.5475 C.3     1  UNL1        0.1498
     11 C          66.1451   92.6522   13.2610 C.2     1  UNL1        0.2919
     12 O          67.1798   93.0877   14.2558 O.2     1  UNL1       -0.2563
     13 H          65.3245   94.5213    9.5154 H       1  UNL1        0.3058
     14 H          63.3965   91.4956   10.6184 H       1  UNL1        0.2454
     15 C          63.7645   88.3731   15.3482 C.ar    1  UNL1        0.2204
     16 N          63.0587   88.6598   16.6403 N.ar    1  UNL1       -0.2097
     17 C          62.6635   87.5308   17.5455 C.ar    1  UNL1        0.1330
     18 C          62.9740   86.1152   17.1586 C.ar    1  UNL1        0.1784
     19 F          62.5788   84.9864   18.0638 F       1  UNL1       -0.2009
     20 C          63.6799   85.8286   15.8665 C.ar    1  UNL1        0.1330
     21 N          64.0751   86.9575   14.9613 N.ar    1  UNL1       -0.2097
     22 C          63.1803   90.4704   11.6579 C.ar    1  UNL1        0.0397
     23 C          63.2090   89.1407   10.9644 C.ar    1  UNL1        0.0057
     24 C          61.9397   89.0009   10.1773 C.ar    1  UNL1        0.0069
     25 C          61.1265   90.2442   10.3844 C.ar    1  UNL1        0.0352
     26 S          61.8933   91.1525   11.2994 S.2     1  UNL1       -0.0878
     27 C          61.5516   87.8243    9.3317 C.ar    1  UNL1        0.0050
     28 C          60.1631   87.7278    8.7727 C.ar    1  UNL1        0.0298
     29 C          59.7751   86.5513    7.9270 C.ar    1  UNL1        0.1424
     30 F          58.3865   86.4549    7.3680 F       1  UNL1       -0.2041
     31 C          60.7756   85.4711    7.6404 C.ar    1  UNL1        0.0592
     32 C          62.1642   85.5676    8.1995 C.ar    1  UNL1        0.1424
     33 F          63.1648   84.4874    7.9129 F       1  UNL1       -0.2041
     34 C          62.5522   86.7442    9.0451 C.ar    1  UNL1        0.0298
@<TRIPOS>BOND
     1     1     2    1
     2     2     3    1
     3     3     4    2
     4     3     5    1
     5     5     6    1
     6     6    22    1
     7    22    23   ar
     8    23    24   ar
     9    24    27    1
    10    27    28   ar
    11    28    29   ar
    12    29    30    1
    13    29    31   ar
    14    31    32   ar
    15    32    33    1
    16    32    34   ar
    17    24    25   ar
    18    25    26   ar
    19     6     7    1
    20     7     8    1
    21     8    15    1
    22    15    16   ar
    23    16    17   ar
    24    17    18   ar
    25    18    19    1
    26    18    20   ar
    27    20    21   ar
    28     8     9    1
    29    10     9    1
    30    10    11    1
    31    11    12    2
    32    11     2   am
    33    10     6    1
    34    26    22   ar
    35    21    15   ar
    36    34    27   ar
    37     4    13    1
    38     5    14    1
@<TRIPOS>MOLECULE
*****
 34 38 0 0 0
SMALL
GASTEIGER

@<TRIPOS>ATOM
      1 C          59.7429   89.4656    7.9063 C.3     1  UNL1        0.2159
      2 N          60.5400   88.7894    8.9822 N.am    1  UNL1       -0.1449
      3 C          61.3532   89.6085    9.9402 C.2     1  UNL1        0.3728
      4 N          61.3693   91.1038    9.8224 N.2     1  UNL1       -0.1329
      5 N          62.1503   88.9323   11.0161 N.pl3   1  UNL1       -0.2247
      6 C          62.1341   87.4370   11.1339 C.3     1  UNL1        0.1559
      7 C          62.8142   86.4978   12.0854 C.3     1  UNL1        0.1327
      8 N          62.4214   85.0983   11.7153 N.pl3   1  UNL1       -0.2740
      9 C          61.4985   85.1725   10.5352 C.3     1  UNL1        0.1079
     10 C          61.3209   86.6180   10.1758 C.3     1  UNL1        0.1498
     11 C          60.5239   87.2942    9.1000 C.2     1  UNL1        0.2919
     12 O          59.7107   86.4751    8.1420 O.2     1  UNL1       -0.2563
     13 H          60.8461   91.5477    9.1163 H       1  UNL1        0.3058
     14 H          62.6840   89.4699   11.6449 H       1  UNL1        0.2454
     15 C          62.8722   83.8445   12.4045 C.ar    1  UNL1        0.2204
     16 N          63.4385   83.9134   13.7918 N.ar    1  UNL1       -0.2097
     17 C          63.8894   82.6596   14.4808 C.ar    1  UNL1        0.1330
     18 C          63.7740   81.3370   13.7827 C.ar    1  UNL1        0.1784
     19 F          64.2248   80.0833   14.4718 F       1  UNL1       -0.2009
     20 C          63.2077   81.2681   12.3954 C.ar    1  UNL1        0.1330
     21 N          62.7568   82.5220   11.7063 N.ar    1  UNL1       -0.2097
     22 C          62.9900   88.1206   12.1587 C.ar    1  UNL1        0.0397
     23 C          63.5321   89.5160   12.0656 C.ar    1  UNL1        0.0057
     24 C          64.3312   89.7866   13.3059 C.ar    1  UNL1        0.0069
     25 C          64.2829   88.5583   14.1656 C.ar    1  UNL1        0.0352
     26 S          63.4539   87.5286   13.4565 S.2     1  UNL1       -0.0878
     27 C          65.0520   91.0615   13.6298 C.ar    1  UNL1        0.0050
     28 C          65.2400   92.1067   12.5705 C.ar    1  UNL1        0.0298
     29 C          65.9608   93.3817   12.8943 C.ar    1  UNL1        0.1424
     30 F          66.1487   94.4269   11.8350 F       1  UNL1       -0.2041
     31 C          66.4937   93.6115   14.2775 C.ar    1  UNL1        0.0592
     32 C          66.3057   92.5663   15.3368 C.ar    1  UNL1        0.1424
     33 F          66.8386   92.7960   16.7201 F       1  UNL1       -0.2041
     34 C          65.5849   91.2913   15.0130 C.ar    1  UNL1        0.0298
@<TRIPOS>BOND
     1     1     2    1
     2     2     3    1
     3     3     4    2
     4     3     5    1
     5     5     6    1
     6     6    22    1
     7    22    23   ar
     8    23    24   ar
     9    24    27    1
    10    27    28   ar
    11    28    29   ar
    12    29    30    1
    13    29    31   ar
    14    31    32   ar
    15    32    33    1
    16    32    34   ar
    17    24    25   ar
    18    25    26   ar
    19     6     7    1
    20     7     8    1
    21     8    15    1
    22    15    16   ar
    23    16    17   ar
    24    17    18   ar
    25    18    19    1
    26    18    20   ar
    27    20    21   ar
    28     8     9    1
    29    10     9    1
    30    10    11    1
    31    11    12    2
    32    11     2   am
    33    10     6    1
    34    26    22   ar
    35    21    15   ar
    36    34    27   ar
    37     4    13    1
    38     5    14    1
@<TRIPOS>MOLECULE
*****
 34 38 0 0 0
SMALL
GASTEIGER

@<TRIPOS>ATOM
      1 C          64.3407   83.4240   14.5358 C.3     1  UNL1        0.2159
      2 N          63.8294   84.6152   13.7810 N.am    1  UNL1       -0.1449
      3 C          64.1594   86.0002   14.2528 C.2     1  UNL1        0.3728
      4 N          65.0008   86.1942   15.4795 N.2     1  UNL1       -0.1329
      5 N          63.6481   87.1915   13.4981 N.pl3   1  UNL1       -0.2247
      6 C          62.8068   86.9975   12.2715 C.3     1  UNL1        0.1559
      7 C          62.1661   87.9731   11.3293 C.3     1  UNL1        0.1327
      8 N          61.4401   87.1910   10.2752 N.pl3   1  UNL1       -0.2740
      9 C          61.6321   85.7320   10.5659 C.3     1  UNL1        0.1079
     10 C          62.4768   85.6124   11.7996 C.3     1  UNL1        0.1498
     11 C          62.9881   84.4213   12.5544 C.2     1  UNL1        0.2919
     12 O          62.6581   83.0362   12.0826 O.2     1  UNL1       -0.2563
     13 H          65.3364   85.4124   15.9749 H       1  UNL1        0.3058
     14 H          63.8647   88.1006   13.8077 H       1  UNL1        0.2454
     15 C          60.6591   87.7667    9.1312 C.ar    1  UNL1        0.2204
     16 N          59.8951   86.8596    8.2129 N.ar    1  UNL1       -0.2097
     17 C          59.1141   87.4355    7.0689 C.ar    1  UNL1        0.1330
     18 C          59.0972   88.9183    6.8433 C.ar    1  UNL1        0.1784
     19 F          58.3163   89.4940    5.6993 F       1  UNL1       -0.2009
     20 C          59.8613   89.8254    7.7617 C.ar    1  UNL1        0.1330
     21 N          60.6422   89.2495    8.9056 N.ar    1  UNL1       -0.2097
     22 C          63.0534   88.4352   12.6212 C.ar    1  UNL1        0.0397
     23 C          64.3718   89.0336   13.0131 C.ar    1  UNL1        0.0057
     24 C          64.1580   90.4952   13.2745 C.ar    1  UNL1        0.0069
     25 C          62.7075   90.8000   13.0441 C.ar    1  UNL1        0.0352
     26 S          62.0248   89.5268   12.6403 S.2     1  UNL1       -0.0878
     27 C          65.2101   91.4791   13.6929 C.ar    1  UNL1        0.0050
     28 C          65.4290   92.7287   12.8926 C.ar    1  UNL1        0.0298
     29 C          66.4810   93.7127   13.3110 C.ar    1  UNL1        0.1424
     30 F          66.6998   94.9623   12.5106 F       1  UNL1       -0.2041
     31 C          67.3142   93.4470   14.5297 C.ar    1  UNL1        0.0592
     32 C          67.0953   92.1974   15.3299 C.ar    1  UNL1        0.1424
     33 F          67.9285   91.9316   16.5487 F       1  UNL1       -0.2041
     34 C          66.0433   91.2134   14.9116 C.ar    1  UNL1        0.0298
@<TRIPOS>BOND
     1     1     2    1
     2     2     3    1
     3     3     4    2
     4     3     5    1
     5     5     6    1
     6     6    22    1
     7    22    23   ar
     8    23    24   ar
     9    24    27    1
    10    27    28   ar
    11    28    29   ar
    12    29    30    1
    13    29    31   ar
    14    31    32   ar
    15    32    33    1
    16    32    34   ar
    17    24    25   ar
    18    25    26   ar
    19     6     7    1
    20     7     8    1
    21     8    15    1
    22    15    16   ar
    23    16    17   ar
    24    17    18   ar
    25    18    19    1
    26    18    20   ar
    27    20    21   ar
    28     8     9    1
    29    10     9    1
    30    10    11    1
    31    11    12    2
    32    11     2   am
    33    10     6    1
    34    26    22   ar
    35    21    15   ar
    36    34    27   ar
    37     4    13    1
    38     5    14    1
@<TRIPOS>MOLECULE
*****
 34 38 0 0 0
SMALL
GASTEIGER

@<TRIPOS>ATOM
      1 C          66.5915   94.0370   13.3321 C.3     1  UNL1        0.2159
      2 N          65.7559   92.8221   13.0562 N.am    1  UNL1       -0.1449
      3 C          65.7369   91.6866   14.0359 C.2     1  UNL1        0.3728
      4 N          66.5535   91.7658   15.2918 N.2     1  UNL1       -0.1329
      5 N          64.9013   90.4717   13.7600 N.pl3   1  UNL1       -0.2247
      6 C          64.0848   90.3926   12.5042 C.3     1  UNL1        0.1559
      7 C          63.1718   89.3311   11.9660 C.3     1  UNL1        0.1327
      8 N          62.6266   89.8107   10.6535 N.pl3   1  UNL1       -0.2740
      9 C          63.2026   91.1686   10.3806 C.3     1  UNL1        0.1079
     10 C          64.1038   91.5282   11.5244 C.3     1  UNL1        0.1498
     11 C          64.9394   92.7430   11.8004 C.2     1  UNL1        0.2919
     12 O          64.9584   93.8786   10.8206 O.2     1  UNL1       -0.2563
     13 H          67.1019   92.5631   15.4729 H       1  UNL1        0.3058
     14 H          64.8889   89.7264   14.4031 H       1  UNL1        0.2454
     15 C          61.6727   89.0637    9.7691 C.ar    1  UNL1        0.2204
     16 N          60.6233   89.8092    8.9991 N.ar    1  UNL1       -0.2097
     17 C          59.6695   89.0620    8.1147 C.ar    1  UNL1        0.1330
     18 C          59.7651   87.5695    8.0003 C.ar    1  UNL1        0.1784
     19 F          58.8112   86.8224    7.1160 F       1  UNL1       -0.2009
     20 C          60.8145   86.8240    8.7704 C.ar    1  UNL1        0.1330
     21 N          61.7683   87.5711    9.6547 N.ar    1  UNL1       -0.2097
     22 C          63.9662   89.1851   13.3863 C.ar    1  UNL1        0.0397
     23 C          63.8625   87.7620   12.9236 C.ar    1  UNL1        0.0057
     24 C          63.7627   86.8862   14.1373 C.ar    1  UNL1        0.0069
     25 C          63.8048   87.7679   15.3500 C.ar    1  UNL1        0.0352
     26 S          63.9306   89.1888   14.8858 S.2     1  UNL1       -0.0878
     27 C          63.6421   85.3910   14.1381 C.ar    1  UNL1        0.0050
     28 C          62.8632   84.7008   13.0579 C.ar    1  UNL1        0.0298
     29 C          62.7425   83.2057   13.0587 C.ar    1  UNL1        0.1424
     30 F          61.9636   82.5156   11.9784 F       1  UNL1       -0.2041
     31 C          63.4007   82.4007   14.1397 C.ar    1  UNL1        0.0592
     32 C          64.1796   83.0909   15.2200 C.ar    1  UNL1        0.1424
     33 F          64.8379   82.2860   16.3011 F       1  UNL1       -0.2041
     34 C          64.3003   84.5860   15.2192 C.ar    1  UNL1        0.0298
@<TRIPOS>BOND
     1     1     2    1
     2     2     3    1
     3     3     4    2
     4     3     5    1
     5     5     6    1
     6     6    22    1
     7    22    23   ar
     8    23    24   ar
     9    24    27    1
    10    27    28   ar
    11    28    29   ar
    12    29    30    1
    13    29    31   ar
    14    31    32   ar
    15    32    33    1
    16    32    34   ar
    17    24    25   ar
    18    25    26   ar
    19     6     7    1
    20     7     8    1
    21     8    15    1
    22    15    16   ar
    23    16    17   ar
    24    17    18   ar
    25    18    19    1
    26    18    20   ar
    27    20    21   ar
    28     8     9    1
    29    10     9    1
    30    10    11    1
    31    11    12    2
    32    11     2   am
    33    10     6    1
    34    26    22   ar
    35    21    15   ar
    36    34    27   ar
    37     4    13    1
    38     5    14    1
@<TRIPOS>MOLECULE
*****
 34 38 0 0 0
SMALL
GASTEIGER

@<TRIPOS>ATOM
      1 C          58.2591   88.3691    6.6837 C.3     1  UNL1        0.2159
      2 N          59.3340   88.1423    7.7051 N.am    1  UNL1       -0.1449
      3 C          59.9054   86.7693    7.9004 C.2     1  UNL1        0.3728
      4 N          59.4019   85.6229    7.0743 N.2     1  UNL1       -0.1329
      5 N          60.9803   86.5425    8.9219 N.pl3   1  UNL1       -0.2247
      6 C          61.4837   87.6888    9.7479 C.3     1  UNL1        0.1559
      7 C          62.5269   87.7694   10.8227 C.3     1  UNL1        0.1327
      8 N          62.6002   89.1923   11.2917 N.pl3   1  UNL1       -0.2740
      9 C          61.6024   89.9911   10.5067 C.3     1  UNL1        0.1079
     10 C          60.9123   89.0619    9.5526 C.3     1  UNL1        0.1498
     11 C          59.8374   89.2886    8.5312 C.2     1  UNL1        0.2919
     12 O          59.2660   90.6617    8.3359 O.2     1  UNL1       -0.2563
     13 H          58.6964   85.7717    6.4039 H       1  UNL1        0.3058
     14 H          61.3553   85.6413    9.0500 H       1  UNL1        0.2454
     15 C          63.5115   89.7233   12.3583 C.ar    1  UNL1        0.2204
     16 N          64.1605   91.0651   12.1907 N.ar    1  UNL1       -0.2097
     17 C          65.0718   91.5960   13.2574 C.ar    1  UNL1        0.1330
     18 C          65.3340   90.7851   14.4917 C.ar    1  UNL1        0.1784
     19 F          66.2452   91.3160   15.5584 F       1  UNL1       -0.2009
     20 C          64.6849   89.4432   14.6594 C.ar    1  UNL1        0.1330
     21 N          63.7737   88.9124   13.5927 N.ar    1  UNL1       -0.2097
     22 C          62.1472   86.3787   10.0536 C.ar    1  UNL1        0.0397
     23 C          62.0525   85.6228   11.3457 C.ar    1  UNL1        0.0057
     24 C          62.8687   84.3714   11.2115 C.ar    1  UNL1        0.0069
     25 C          63.4678   84.3540    9.8365 C.ar    1  UNL1        0.0352
     26 S          63.0219   85.5946    9.1208 S.2     1  UNL1       -0.0878
     27 C          63.0534   83.3218   12.2670 C.ar    1  UNL1        0.0050
     28 C          63.6944   83.6783   13.5753 C.ar    1  UNL1        0.0298
     29 C          63.8791   82.6287   14.6308 C.ar    1  UNL1        0.1424
     30 F          64.5202   82.9853   15.9392 F       1  UNL1       -0.2041
     31 C          63.4227   81.2223   14.3780 C.ar    1  UNL1        0.0592
     32 C          62.7816   80.8658   13.0697 C.ar    1  UNL1        0.1424
     33 F          62.3251   79.4594   12.8167 F       1  UNL1       -0.2041
     34 C          62.5969   81.9154   12.0142 C.ar    1  UNL1        0.0298
@<TRIPOS>BOND
     1     1     2    1
     2     2     3    1
     3     3     4    2
     4     3     5    1
     5     5     6    1
     6     6    22    1
     7    22    23   ar
     8    23    24   ar
     9    24    27    1
    10    27    28   ar
    11    28    29   ar
    12    29    30    1
    13    29    31   ar
    14    31    32   ar
    15    32    33    1
    16    32    34   ar
    17    24    25   ar
    18    25    26   ar
    19     6     7    1
    20     7     8    1
    21     8    15    1
    22    15    16   ar
    23    16    17   ar
    24    17    18   ar
    25    18    19    1
    26    18    20   ar
    27    20    21   ar
    28     8     9    1
    29    10     9    1
    30    10    11    1
    31    11    12    2
    32    11     2   am
    33    10     6    1
    34    26    22   ar
    35    21    15   ar
    36    34    27   ar
    37     4    13    1
    38     5    14    1
@<TRIPOS>MOLECULE
*****
 34 38 0 0 0
SMALL
GASTEIGER

@<TRIPOS>ATOM
      1 C          59.2392   88.2499    7.4268 C.3     1  UNL1        0.2159
      2 N          60.1417   88.1932    8.6236 N.am    1  UNL1       -0.1449
      3 C          60.5845   86.8671    9.1668 C.2     1  UNL1        0.3728
      4 N          60.1248   85.5975    8.5133 N.2     1  UNL1       -0.1329
      5 N          61.4871   86.8103   10.3636 N.pl3   1  UNL1       -0.2247
      6 C          61.9468   88.0799   11.0171 C.3     1  UNL1        0.1559
      7 C          62.8316   88.3360   12.2009 C.3     1  UNL1        0.1327
      8 N          62.9357   89.8204   12.3892 N.pl3   1  UNL1       -0.2740
      9 C          62.1151   90.4818   11.3218 C.3     1  UNL1        0.1079
     10 C          61.5040   89.4060   10.4738 C.3     1  UNL1        0.1498
     11 C          60.6014   89.4627    9.2770 C.2     1  UNL1        0.2919
     12 O          60.1586   90.7889    8.7337 O.2     1  UNL1       -0.2563
     13 H          59.5324   85.6347    7.7279 H       1  UNL1        0.3058
     14 H          61.7777   85.9399   10.7202 H       1  UNL1        0.2454
     15 C          63.7221   90.5207   13.4575 C.ar    1  UNL1        0.2204
     16 N          64.9638   91.2815   13.0977 N.ar    1  UNL1       -0.2097
     17 C          65.7503   91.9817   14.1660 C.ar    1  UNL1        0.1330
     18 C          65.2951   91.9212   15.5940 C.ar    1  UNL1        0.1784
     19 F          66.0816   92.6214   16.6622 F       1  UNL1       -0.2009
     20 C          64.0534   91.1604   15.9537 C.ar    1  UNL1        0.1330
     21 N          63.2670   90.4602   14.8854 N.ar    1  UNL1       -0.2097
     22 C          62.4694   86.8341   11.6690 C.ar    1  UNL1        0.0397
     23 C          62.0992   85.4268   11.3052 C.ar    1  UNL1        0.0057
     24 C          62.8550   84.4999   12.2106 C.ar    1  UNL1        0.0069
     25 C          63.6922   85.3344   13.1340 C.ar    1  UNL1        0.0352
     26 S          63.4538   86.7770   12.7993 S.2     1  UNL1       -0.0878
     27 C          62.7857   83.0016   12.1953 C.ar    1  UNL1        0.0050
     28 C          62.4288   82.2544   13.4460 C.ar    1  UNL1        0.0298
     29 C          62.3595   80.7561   13.4307 C.ar    1  UNL1        0.1424
     30 F          62.0026   80.0090   14.6814 F       1  UNL1       -0.2041
     31 C          62.6471   80.0049   12.1646 C.ar    1  UNL1        0.0592
     32 C          63.0040   80.7521   10.9139 C.ar    1  UNL1        0.1424
     33 F          63.2916   80.0009    9.6477 F       1  UNL1       -0.2041
     34 C          63.0733   82.2504   10.9292 C.ar    1  UNL1        0.0298
@<TRIPOS>BOND
     1     1     2    1
     2     2     3    1
     3     3     4    2
     4     3     5    1
     5     5     6    1
     6     6    22    1
     7    22    23   ar
     8    23    24   ar
     9    24    27    1
    10    27    28   ar
    11    28    29   ar
    12    29    30    1
    13    29    31   ar
    14    31    32   ar
    15    32    33    1
    16    32    34   ar
    17    24    25   ar
    18    25    26   ar
    19     6     7    1
    20     7     8    1
    21     8    15    1
    22    15    16   ar
    23    16    17   ar
    24    17    18   ar
    25    18    19    1
    26    18    20   ar
    27    20    21   ar
    28     8     9    1
    29    10     9    1
    30    10    11    1
    31    11    12    2
    32    11     2   am
    33    10     6    1
    34    26    22   ar
    35    21    15   ar
    36    34    27   ar
    37     4    13    1
    38     5    14    1
@<TRIPOS>MOLECULE
*****
 34 38 0 0 0
SMALL
GASTEIGER

@<TRIPOS>ATOM
      1 C          59.0614   88.0085    6.3475 C.3     1  UNL1        0.2159
      2 N          59.8303   87.9149    7.6322 N.am    1  UNL1       -0.1449
      3 C          60.1816   89.1615    8.3885 C.2     1  UNL1        0.3728
      4 N          59.7641   90.5020    7.8603 N.2     1  UNL1       -0.1329
      5 N          60.9504   89.0679    9.6732 N.pl3   1  UNL1       -0.2247
      6 C          61.3678   87.7275   10.2013 C.3     1  UNL1        0.1559
      7 C          62.1278   87.3253   11.4305 C.3     1  UNL1        0.1327
      8 N          62.2461   85.8300   11.4337 N.pl3   1  UNL1       -0.2740
      9 C          61.5593   85.3080   10.2065 C.3     1  UNL1        0.1079
     10 C          61.0165   86.4807    9.4449 C.3     1  UNL1        0.1498
     11 C          60.2477   86.5744    8.1603 C.2     1  UNL1        0.2919
     12 O          59.8963   85.3277    7.4039 O.2     1  UNL1       -0.2563
     13 H          59.2595   90.5635    7.0172 H       1  UNL1        0.3058
     14 H          61.1810   89.8862   10.1696 H       1  UNL1        0.2454
     15 C          62.9309   85.0020   12.4803 C.ar    1  UNL1        0.2204
     16 N          63.5435   85.6645   13.6785 N.ar    1  UNL1       -0.2097
     17 C          64.2284   84.8364   14.7251 C.ar    1  UNL1        0.1330
     18 C          64.3006   83.3459   14.5734 C.ar    1  UNL1        0.1784
     19 F          64.9855   82.5178   15.6200 F       1  UNL1       -0.2009
     20 C          63.6881   82.6833   13.3752 C.ar    1  UNL1        0.1330
     21 N          63.0032   83.5114   12.3286 N.ar    1  UNL1       -0.2097
     22 C          61.7888   88.8809   11.0630 C.ar    1  UNL1        0.0397
     23 C          63.1758   89.4422   11.1688 C.ar    1  UNL1        0.0057
     24 C          63.1409   90.5837   12.1413 C.ar    1  UNL1        0.0069
     25 C          61.7323   90.7278   12.6366 C.ar    1  UNL1        0.0352
     26 S          60.8967   89.6754   11.9701 S.2     1  UNL1       -0.0878
     27 C          64.3093   91.4321   12.5473 C.ar    1  UNL1        0.0050
     28 C          64.8146   91.3868   13.9589 C.ar    1  UNL1        0.0298
     29 C          65.9831   92.2352   14.3649 C.ar    1  UNL1        0.1424
     30 F          66.4884   92.1898   15.7765 F       1  UNL1       -0.2041
     31 C          66.6463   93.1291   13.3593 C.ar    1  UNL1        0.0592
     32 C          66.1410   93.1744   11.9477 C.ar    1  UNL1        0.1424
     33 F          66.8041   94.0683   10.9421 F       1  UNL1       -0.2041
     34 C          64.9725   92.3260   11.5417 C.ar    1  UNL1        0.0298
@<TRIPOS>BOND
     1     1     2    1
     2     2     3    1
     3     3     4    2
     4     3     5    1
     5     5     6    1
     6     6    22    1
     7    22    23   ar
     8    23    24   ar
     9    24    27    1
    10    27    28   ar
    11    28    29   ar
    12    29    30    1
    13    29    31   ar
    14    31    32   ar
    15    32    33    1
    16    32    34   ar
    17    24    25   ar
    18    25    26   ar
    19     6     7    1
    20     7     8    1
    21     8    15    1
    22    15    16   ar
    23    16    17   ar
    24    17    18   ar
    25    18    19    1
    26    18    20   ar
    27    20    21   ar
    28     8     9    1
    29    10     9    1
    30    10    11    1
    31    11    12    2
    32    11     2   am
    33    10     6    1
    34    26    22   ar
    35    21    15   ar
    36    34    27   ar
    37     4    13    1
    38     5    14    1
@<TRIPOS>MOLECULE
*****
 34 38 0 0 0
SMALL
GASTEIGER

@<TRIPOS>ATOM
      1 C          64.1293   80.7389   13.9008 C.3     1  UNL1        0.2159
      2 N          63.7903   82.1519   13.5282 N.am    1  UNL1       -0.1449
      3 C          64.2319   83.2854   14.4056 C.2     1  UNL1        0.3728
      4 N          65.0126   83.0061   15.6557 N.2     1  UNL1       -0.1329
      5 N          63.8929   84.6984   14.0331 N.pl3   1  UNL1       -0.2247
      6 C          63.1123   84.9777   12.7831 C.3     1  UNL1        0.1559
      7 C          62.6340   86.2572   12.1633 C.3     1  UNL1        0.1327
      8 N          61.8967   85.9143   10.9028 N.pl3   1  UNL1       -0.2740
      9 C          61.9194   84.4230   10.7435 C.3     1  UNL1        0.1079
     10 C          62.6707   83.8441   11.9056 C.3     1  UNL1        0.1498
     11 C          63.0097   82.4312   12.2782 C.2     1  UNL1        0.2919
     12 O          62.5680   81.2976   11.4008 O.2     1  UNL1       -0.2563
     13 H          65.2351   82.0788   15.9003 H       1  UNL1        0.3058
     14 H          64.1828   85.4424   14.6090 H       1  UNL1        0.2454
     15 C          61.2503   86.8913    9.9660 C.ar    1  UNL1        0.2204
     16 N          61.4547   88.3645   10.1604 N.ar    1  UNL1       -0.2097
     17 C          60.8082   89.3415    9.2236 C.ar    1  UNL1        0.1330
     18 C          59.9573   88.8452    8.0923 C.ar    1  UNL1        0.1784
     19 F          59.3109   89.8222    7.1555 F       1  UNL1       -0.2009
     20 C          59.7529   87.3720    7.8978 C.ar    1  UNL1        0.1330
     21 N          60.3994   86.3951    8.8347 N.ar    1  UNL1       -0.2097
     22 C          63.4840   86.2071   13.5578 C.ar    1  UNL1        0.0397
     23 C          63.8887   87.5283   12.9742 C.ar    1  UNL1        0.0057
     24 C          64.1710   88.4690   14.1079 C.ar    1  UNL1        0.0069
     25 C          63.9408   87.7292   15.3924 C.ar    1  UNL1        0.0352
     26 S          63.5161   86.3313   15.0523 S.2     1  UNL1       -0.0878
     27 C          64.6071   89.8985   13.9798 C.ar    1  UNL1        0.0050
     28 C          64.4772   90.6072   12.6643 C.ar    1  UNL1        0.0298
     29 C          64.9133   92.0367   12.5362 C.ar    1  UNL1        0.1424
     30 F          64.7834   92.7454   11.2205 F       1  UNL1       -0.2041
     31 C          65.4792   92.7575   13.7237 C.ar    1  UNL1        0.0592
     32 C          65.6090   92.0488   15.0392 C.ar    1  UNL1        0.1424
     33 F          66.1749   92.7695   16.2268 F       1  UNL1       -0.2041
     34 C          65.1730   90.6193   15.1673 C.ar    1  UNL1        0.0298
@<TRIPOS>BOND
     1     1     2    1
     2     2     3    1
     3     3     4    2
     4     3     5    1
     5     5     6    1
     6     6    22    1
     7    22    23   ar
     8    23    24   ar
     9    24    27    1
    10    27    28   ar
    11    28    29   ar
    12    29    30    1
    13    29    31   ar
    14    31    32   ar
    15    32    33    1
    16    32    34   ar
    17    24    25   ar
    18    25    26   ar
    19     6     7    1
    20     7     8    1
    21     8    15    1
    22    15    16   ar
    23    16    17   ar
    24    17    18   ar
    25    18    19    1
    26    18    20   ar
    27    20    21   ar
    28     8     9    1
    29    10     9    1
    30    10    11    1
    31    11    12    2
    32    11     2   am
    33    10     6    1
    34    26    22   ar
    35    21    15   ar
    36    34    27   ar
    37     4    13    1
    38     5    14    1
