@<TRIPOS>MOLECULE
*****
 27 31 0 0 0
SMALL
GASTEIGER

@<TRIPOS>ATOM
      1 O          63.4548   89.3763   12.6904 O.2     1  UNL1       -0.2638
      2 C          62.6311   88.7631   11.5970 C.2     1  UNL1        0.3160
      3 N          61.9979   89.6368   10.5551 N.am    1  UNL1       -0.1720
      4 C          61.1742   89.0236    9.4616 C.ar    1  UNL1        0.0775
      5 C          60.5410   89.8973    8.4197 C.ar    1  UNL1        0.0167
      6 C          59.7173   89.2840    7.3264 C.ar    1  UNL1        0.0014
      7 C          59.5268   87.7971    7.2750 C.ar    1  UNL1        0.0002
      8 C          60.1600   86.9233    8.3169 C.ar    1  UNL1        0.0051
      9 C          60.9837   87.5366    9.4102 C.ar    1  UNL1        0.0623
     10 C          61.6169   86.6629   10.4522 C.2     1  UNL1        0.2419
     11 N          61.6054   85.1771   10.6582 N.2     1  UNL1       -0.0302
     12 C          62.4220   84.8721   11.8789 C.2     1  UNL1        0.3765
     13 N          62.9382   86.1694   12.4273 N.2     1  UNL1       -0.0256
     14 C          62.4406   87.2761   11.5456 C.2     1  UNL1        0.2907
     15 C          62.6776   83.5091   12.4508 C.ar    1  UNL1        0.0989
     16 C          62.0822   83.1271   13.7735 C.ar    1  UNL1        0.0085
     17 C          62.3378   81.7641   14.3453 C.ar    1  UNL1        0.0003
     18 C          63.1888   80.7833   13.5945 C.ar    1  UNL1        0.0009
     19 C          63.7842   81.1653   12.2718 C.ar    1  UNL1        0.0116
     20 C          63.5286   82.5283   11.7000 C.ar    1  UNL1        0.0651
     21 CL         64.1240   82.9104   10.3773 Cl      1  UNL1       -0.0820
     22 C          59.0841   90.1578    6.2844 C.ar    1  UNL1        0.0031
     23 C          59.9426   91.0119    5.3992 C.ar    1  UNL1        0.0207
     24 C          59.3094   91.8856    4.3572 C.ar    1  UNL1        0.0989
     25 N          57.8177   91.9052    4.2004 N.ar    1  UNL1       -0.2423
     26 C          56.9593   91.0511    5.0856 C.ar    1  UNL1        0.0989
     27 C          57.5925   90.1773    6.1276 C.ar    1  UNL1        0.0207
@<TRIPOS>BOND
     1     1     2    2
     2     2     3    1
     3     3     4    2
     4     4     5   ar
     5     5     6   ar
     6     6    22    1
     7    22    23   ar
     8    23    24   ar
     9    24    25   ar
    10    25    26   ar
    11    26    27   ar
    12     6     7   ar
    13     7     8   ar
    14     8     9   ar
    15     9    10    2
    16    10    11    1
    17    11    12    2
    18    12    15    1
    19    15    16   ar
    20    16    17   ar
    21    17    18   ar
    22    18    19   ar
    23    19    20   ar
    24    20    21    1
    25    12    13    1
    26    13    14    2
    27    14     2    1
    28     9     4   ar
    29    14    10    1
    30    27    22   ar
    31    20    15   ar
@<TRIPOS>MOLECULE
*****
 27 31 0 0 0
SMALL
GASTEIGER

@<TRIPOS>ATOM
      1 O          61.2892   86.9519    9.1291 O.2     1  UNL1       -0.2638
      2 C          62.0378   86.9072   10.4282 C.2     1  UNL1        0.3160
      3 N          62.4322   88.1833   11.1108 N.am    1  UNL1       -0.1720
      4 C          63.1808   88.1387   12.4099 C.ar    1  UNL1        0.0775
      5 C          63.5752   89.4148   13.0925 C.ar    1  UNL1        0.0167
      6 C          64.3238   89.3701   14.3915 C.ar    1  UNL1        0.0014
      7 C          64.6780   88.0492   15.0080 C.ar    1  UNL1        0.0002
      8 C          64.2837   86.7731   14.3254 C.ar    1  UNL1        0.0051
      9 C          63.5351   86.8179   13.0263 C.ar    1  UNL1        0.0623
     10 C          63.1406   85.5417   12.3436 C.2     1  UNL1        0.2419
     11 N          63.3500   84.1020   12.7088 N.2     1  UNL1       -0.0302
     12 C          62.7307   83.2569   11.6353 C.2     1  UNL1        0.3765
     13 N          62.1387   84.1743   10.6068 N.2     1  UNL1       -0.0256
     14 C          62.3920   85.5864   11.0446 C.2     1  UNL1        0.2907
     15 C          62.7075   81.7575   11.5971 C.ar    1  UNL1        0.0989
     16 C          63.0171   81.0349   10.3197 C.ar    1  UNL1        0.0085
     17 C          62.9940   79.5356   10.2815 C.ar    1  UNL1        0.0003
     18 C          62.6612   78.7589   11.5208 C.ar    1  UNL1        0.0009
     19 C          62.3515   79.4814   12.7983 C.ar    1  UNL1        0.0116
     20 C          62.3747   80.9807   12.8365 C.ar    1  UNL1        0.0651
     21 CL         62.0651   81.7034   14.1140 Cl      1  UNL1       -0.0820
     22 C          64.7182   90.6462   15.0742 C.ar    1  UNL1        0.0031
     23 C          63.9634   91.1145   16.2829 C.ar    1  UNL1        0.0207
     24 C          64.3577   92.3905   16.9656 C.ar    1  UNL1        0.0989
     25 N          65.5070   93.1984   16.4396 N.ar    1  UNL1       -0.2423
     26 C          66.2618   92.7301   15.2309 C.ar    1  UNL1        0.0989
     27 C          65.8674   91.4540   14.5482 C.ar    1  UNL1        0.0207
@<TRIPOS>BOND
     1     1     2    2
     2     2     3    1
     3     3     4    2
     4     4     5   ar
     5     5     6   ar
     6     6    22    1
     7    22    23   ar
     8    23    24   ar
     9    24    25   ar
    10    25    26   ar
    11    26    27   ar
    12     6     7   ar
    13     7     8   ar
    14     8     9   ar
    15     9    10    2
    16    10    11    1
    17    11    12    2
    18    12    15    1
    19    15    16   ar
    20    16    17   ar
    21    17    18   ar
    22    18    19   ar
    23    19    20   ar
    24    20    21    1
    25    12    13    1
    26    13    14    2
    27    14     2    1
    28     9     4   ar
    29    14    10    1
    30    27    22   ar
    31    20    15   ar
@<TRIPOS>MOLECULE
*****
 27 31 0 0 0
SMALL
GASTEIGER

@<TRIPOS>ATOM
      1 O          60.8531   87.1182    9.4953 O.2     1  UNL1       -0.2638
      2 C          61.7826   87.2608   10.6639 C.2     1  UNL1        0.3160
      3 N          62.3524   88.6047   11.0094 N.am    1  UNL1       -0.1720
      4 C          63.2819   88.7473   12.1781 C.ar    1  UNL1        0.0775
      5 C          63.8517   90.0911   12.5236 C.ar    1  UNL1        0.0167
      6 C          64.7812   90.2337   13.6922 C.ar    1  UNL1        0.0014
      7 C          65.1409   89.0324   14.5152 C.ar    1  UNL1        0.0002
      8 C          64.5712   87.6886   14.1697 C.ar    1  UNL1        0.0051
      9 C          63.6417   87.5460   13.0012 C.ar    1  UNL1        0.0623
     10 C          63.0719   86.2021   12.6556 C.2     1  UNL1        0.2419
     11 N          63.2438   84.8487   13.2790 N.2     1  UNL1       -0.0302
     12 C          62.4206   83.8696   12.4956 C.2     1  UNL1        0.3765
     13 N          61.7398   84.6180   11.3881 N.2     1  UNL1       -0.0256
     14 C          62.1424   86.0595   11.4870 C.2     1  UNL1        0.2907
     15 C          62.2993   82.4001   12.7714 C.ar    1  UNL1        0.0989
     16 C          61.5801   81.9241   13.9986 C.ar    1  UNL1        0.0085
     17 C          61.4589   80.4547   14.2743 C.ar    1  UNL1        0.0003
     18 C          62.0569   79.4613   13.3228 C.ar    1  UNL1        0.0009
     19 C          62.7761   79.9372   12.0955 C.ar    1  UNL1        0.0116
     20 C          62.8973   81.4066   11.8198 C.ar    1  UNL1        0.0651
     21 CL         63.6166   81.8827   10.5925 Cl      1  UNL1       -0.0820
     22 C          65.3509   91.5776   14.0377 C.ar    1  UNL1        0.0031
     23 C          65.6552   92.5653   12.9505 C.ar    1  UNL1        0.0207
     24 C          66.2249   93.9091   13.2960 C.ar    1  UNL1        0.0989
     25 N          66.4905   94.2654   14.7288 N.ar    1  UNL1       -0.2423
     26 C          66.1863   93.2777   15.8159 C.ar    1  UNL1        0.0989
     27 C          65.6165   91.9338   15.4704 C.ar    1  UNL1        0.0207
@<TRIPOS>BOND
     1     1     2    2
     2     2     3    1
     3     3     4    2
     4     4     5   ar
     5     5     6   ar
     6     6    22    1
     7    22    23   ar
     8    23    24   ar
     9    24    25   ar
    10    25    26   ar
    11    26    27   ar
    12     6     7   ar
    13     7     8   ar
    14     8     9   ar
    15     9    10    2
    16    10    11    1
    17    11    12    2
    18    12    15    1
    19    15    16   ar
    20    16    17   ar
    21    17    18   ar
    22    18    19   ar
    23    19    20   ar
    24    20    21    1
    25    12    13    1
    26    13    14    2
    27    14     2    1
    28     9     4   ar
    29    14    10    1
    30    27    22   ar
    31    20    15   ar
@<TRIPOS>MOLECULE
*****
 27 31 0 0 0
SMALL
GASTEIGER

@<TRIPOS>ATOM
      1 O          63.1699   88.5892   18.0309 O.2     1  UNL1       -0.2638
      2 C          63.3083   87.9291   16.6910 C.2     1  UNL1        0.3160
      3 N          62.9396   86.4847   16.5249 N.am    1  UNL1       -0.1720
      4 C          63.0780   85.8245   15.1850 C.ar    1  UNL1        0.0775
      5 C          62.7094   84.3801   15.0189 C.ar    1  UNL1        0.0167
      6 C          62.8478   83.7200   13.6791 C.ar    1  UNL1        0.0014
      7 C          63.3548   84.5045   12.5054 C.ar    1  UNL1        0.0002
      8 C          63.7235   85.9489   12.6715 C.ar    1  UNL1        0.0051
      9 C          63.5851   86.6089   14.0113 C.ar    1  UNL1        0.0623
     10 C          63.9537   88.0535   14.1774 C.2     1  UNL1        0.2419
     11 N          64.4773   89.0733   13.2101 N.2     1  UNL1       -0.0302
     12 C          64.6625   90.3637   13.9521 C.2     1  UNL1        0.3765
     13 N          64.2534   90.1413   15.3780 N.2     1  UNL1       -0.0256
     14 C          63.8153   88.7135   15.5173 C.2     1  UNL1        0.2907
     15 C          65.1681   91.6506   13.3703 C.ar    1  UNL1        0.0989
     16 C          64.8508   92.0065   11.9482 C.ar    1  UNL1        0.0085
     17 C          65.3564   93.2933   11.3664 C.ar    1  UNL1        0.0003
     18 C          66.1792   94.2242   12.2069 C.ar    1  UNL1        0.0009
     19 C          66.4965   93.8683   13.6291 C.ar    1  UNL1        0.0116
     20 C          65.9909   92.5815   14.2108 C.ar    1  UNL1        0.0651
     21 CL         66.3082   92.2255   15.6330 Cl      1  UNL1       -0.0820
     22 C          62.4792   82.2755   13.5130 C.ar    1  UNL1        0.0031
     23 C          61.4059   81.6721   14.3697 C.ar    1  UNL1        0.0207
     24 C          61.0373   80.2276   14.2036 C.ar    1  UNL1        0.0989
     25 N          61.7419   79.3866   13.1807 N.ar    1  UNL1       -0.2423
     26 C          62.8151   79.9900   12.3240 C.ar    1  UNL1        0.0989
     27 C          63.1838   81.4345   12.4902 C.ar    1  UNL1        0.0207
@<TRIPOS>BOND
     1     1     2    2
     2     2     3    1
     3     3     4    2
     4     4     5   ar
     5     5     6   ar
     6     6    22    1
     7    22    23   ar
     8    23    24   ar
     9    24    25   ar
    10    25    26   ar
    11    26    27   ar
    12     6     7   ar
    13     7     8   ar
    14     8     9   ar
    15     9    10    2
    16    10    11    1
    17    11    12    2
    18    12    15    1
    19    15    16   ar
    20    16    17   ar
    21    17    18   ar
    22    18    19   ar
    23    19    20   ar
    24    20    21    1
    25    12    13    1
    26    13    14    2
    27    14     2    1
    28     9     4   ar
    29    14    10    1
    30    27    22   ar
    31    20    15   ar
