@<TRIPOS>MOLECULE
*****
 44 49 0 0 0
SMALL
GASTEIGER

@<TRIPOS>ATOM
      1 C          60.1591   88.7195    7.6955 C.ar    1  UNL1        0.0841
      2 C          60.6161   89.1873    9.0454 C.ar    1  UNL1        0.0430
      3 N          61.3005   88.0394    9.7265 N.ar    1  UNL1       -0.3271
      4 C          61.2665   86.8622    8.7975 C.ar    1  UNL1        0.1098
      5 C          61.7867   85.4618    8.9323 C.ar    1  UNL1        0.1509
      6 N          61.6015   84.4818    7.8119 N.ar    1  UNL1       -0.2075
      7 C          60.8961   84.9021    6.5567 C.ar    1  UNL1        0.2001
      8 N          60.3759   86.3025    6.4218 N.ar    1  UNL1       -0.2222
      9 C          60.5610   87.2826    7.5422 C.ar    1  UNL1        0.1069
     10 C          61.8662   88.2143   11.1046 C.3     1  UNL1        0.1059
     11 C          61.7476   89.5372   11.8017 C.3     1  UNL1        0.0249
     12 C          61.0632   90.6851   11.1206 C.3     1  UNL1        0.0082
     13 C          60.4974   90.5101    9.7425 C.3     1  UNL1        0.0441
     14 N          62.4922   85.0414   10.1876 N.pl3   1  UNL1       -0.2892
     15 C          63.7276   84.1946   10.1059 C.3     1  UNL1        0.1095
     16 C          64.4330   83.7742   11.3611 C.3     1  UNL1        0.0939
     17 N          63.9030   84.2006   12.6980 N.3     1  UNL1       -0.2695
     18 C          62.6676   85.0474   12.7797 C.3     1  UNL1        0.0939
     19 C          61.9622   85.4678   11.5244 C.3     1  UNL1        0.1095
     20 C          64.6084   83.7803   13.9533 C.3     1  UNL1        0.0769
     21 C          64.0283   84.1283   15.2921 C.3     1  UNL1        0.0437
     22 C          63.8314   85.5655   15.6736 C.ar    1  UNL1       -0.0184
     23 C          63.0413   85.9145   16.8999 C.ar    1  UNL1       -0.0018
     24 C          62.8444   87.3517   17.2814 C.ar    1  UNL1        0.0316
     25 C          63.4376   88.4400   16.4365 C.ar    1  UNL1        0.1674
     26 F          63.2407   89.8773   16.8180 F       1  UNL1       -0.2018
     27 C          64.2277   88.0910   15.2101 C.ar    1  UNL1        0.1671
     28 F          64.8209   89.1792   14.3652 F       1  UNL1       -0.2018
     29 C          64.4246   86.6537   14.8287 C.ar    1  UNL1        0.0277
     30 N          60.1900   90.4675    5.7736 N.am    1  UNL1       -0.2967
     31 C          59.4284   89.5441    6.6775 C.2     1  UNL1        0.2487
     32 O          57.9359   89.4451    6.5635 O.2     1  UNL1       -0.2700
     33 H          61.1695   90.5325    5.8485 H       1  UNL1        0.1501
     34 C          59.4593   91.2920    4.7557 C.3     1  UNL1        0.1197
     35 C          62.4173   92.7901    2.5749 C.ar    1  UNL1        0.1721
     36 C          61.7521   93.9992    1.9871 C.ar    1  UNL1        0.0400
     37 C          60.3225   94.3059    2.3222 C.ar    1  UNL1        0.0030
     38 C          59.5583   93.4035    3.2451 C.ar    1  UNL1        0.0006
     39 C          60.2235   92.1944    3.8328 C.ar    1  UNL1        0.0345
     40 C          61.6531   91.8877    3.4977 C.ar    1  UNL1        0.1700
     41 C          64.5446   93.2512    1.1565 C.3     1  UNL1        0.2526
     42 O          63.8469   92.4834    2.2398 O.3     1  UNL1       -0.4684
     43 O          62.3184   90.6786    4.0854 O.3     1  UNL1       -0.4686
     44 C          63.4951   90.0584    3.3920 C.3     1  UNL1        0.2526
@<TRIPOS>BOND
     1    41    42    1
     2    42    35    1
     3    35    36   ar
     4    36    37   ar
     5    37    38   ar
     6    38    39   ar
     7    39    34    1
     8    34    30    1
     9    30    31   am
    10    31    32    2
    11    31     1    1
    12     1     2   ar
    13     2     3   ar
    14     3     4   ar
    15     4     5   ar
    16     5    14    1
    17    14    15    1
    18    15    16    1
    19    16    17    1
    20    17    20    1
    21    20    21    1
    22    21    22    1
    23    22    23   ar
    24    23    24   ar
    25    24    25   ar
    26    25    26    1
    27    25    27   ar
    28    27    28    1
    29    27    29   ar
    30    17    18    1
    31    18    19    1
    32     5     6   ar
    33     6     7   ar
    34     7     8   ar
    35     8     9   ar
    36     3    10    1
    37    10    11    1
    38    11    12    1
    39    12    13    1
    40    39    40   ar
    41    40    43    1
    42    43    44    1
    43    40    35   ar
    44     9     1   ar
    45    13     2    1
    46     9     4   ar
    47    19    14    1
    48    29    22   ar
    49    30    33    1
@<TRIPOS>MOLECULE
*****
 44 49 0 0 0
SMALL
GASTEIGER

@<TRIPOS>ATOM
      1 C          60.1704   88.7544    7.8911 C.ar    1  UNL1        0.0841
      2 C          60.8089   87.3980    7.8402 C.ar    1  UNL1        0.0430
      3 N          61.4286   87.1268    9.1790 N.ar    1  UNL1       -0.3271
      4 C          61.1731   88.3157   10.0573 C.ar    1  UNL1        0.1098
      5 C          61.5481   88.6122   11.4791 C.ar    1  UNL1        0.1509
      6 N          61.1456   89.9147   12.1049 N.ar    1  UNL1       -0.2075
      7 C          60.3680   90.9206   11.3089 C.ar    1  UNL1        0.2001
      8 N          59.9930   90.6240    9.8872 N.ar    1  UNL1       -0.2222
      9 C          60.3956   89.3216    9.2614 C.ar    1  UNL1        0.1069
     10 C          62.1454   85.8325    9.4254 C.3     1  UNL1        0.1059
     11 C          62.2425   84.8092    8.3329 C.3     1  UNL1        0.0249
     12 C          61.6227   85.0804    6.9941 C.3     1  UNL1        0.0082
     13 C          60.9059   86.3748    6.7477 C.3     1  UNL1        0.0441
     14 N          62.3257   87.6063   12.2751 N.pl3   1  UNL1       -0.2892
     15 C          61.9322   86.1592   12.2441 C.3     1  UNL1        0.1095
     16 C          62.7098   85.1534   13.0401 C.3     1  UNL1        0.0939
     17 N          63.8808   85.5947   13.8671 N.3     1  UNL1       -0.2695
     18 C          64.2743   87.0418   13.8981 C.3     1  UNL1        0.0939
     19 C          63.4967   88.0476   13.1021 C.3     1  UNL1        0.1095
     20 C          64.6584   84.5888   14.6631 C.3     1  UNL1        0.0769
     21 C          64.1800   83.1698   14.7508 C.3     1  UNL1        0.0437
     22 C          63.8469   82.4120   13.4999 C.ar    1  UNL1       -0.0184
     23 C          62.9884   81.1842   13.5731 C.ar    1  UNL1       -0.0018
     24 C          62.6553   80.4263   12.3223 C.ar    1  UNL1        0.0316
     25 C          63.1808   80.8963   10.9982 C.ar    1  UNL1        0.1674
     26 F          62.8477   80.1384    9.7473 F       1  UNL1       -0.2018
     27 C          64.0393   82.1241   10.9251 C.ar    1  UNL1        0.1671
     28 F          64.5648   82.5941    9.6011 F       1  UNL1       -0.2018
     29 C          64.3724   82.8819   12.1760 C.ar    1  UNL1        0.0277
     30 N          60.1566   90.3843    5.8679 N.am    1  UNL1       -0.2967
     31 C          59.4359   89.4257    6.7688 C.2     1  UNL1        0.2487
     32 O          57.9803   89.1385    6.5472 O.2     1  UNL1       -0.2700
     33 H          61.1119   90.5728    6.0133 H       1  UNL1        0.1501
     34 C          59.4221   91.0556    4.7456 C.3     1  UNL1        0.1197
     35 C          62.2963   92.8020    2.6387 C.ar    1  UNL1        0.1721
     36 C          61.5645   93.9920    2.0927 C.ar    1  UNL1        0.0400
     37 C          60.1185   94.2032    2.4309 C.ar    1  UNL1        0.0030
     38 C          59.4044   93.2244    3.3152 C.ar    1  UNL1        0.0006
     39 C          60.1362   92.0344    3.8613 C.ar    1  UNL1        0.0345
     40 C          61.5822   91.8232    3.5230 C.ar    1  UNL1        0.1700
     41 C          64.4117   93.4705    1.2866 C.3     1  UNL1        0.2526
     42 O          63.7423   92.5907    2.3004 O.3     1  UNL1       -0.4684
     43 O          62.3141   90.6331    4.0690 O.3     1  UNL1       -0.4686
     44 C          63.5669   90.1510    3.3996 C.3     1  UNL1        0.2526
@<TRIPOS>BOND
     1    41    42    1
     2    42    35    1
     3    35    36   ar
     4    36    37   ar
     5    37    38   ar
     6    38    39   ar
     7    39    34    1
     8    34    30    1
     9    30    31   am
    10    31    32    2
    11    31     1    1
    12     1     2   ar
    13     2     3   ar
    14     3     4   ar
    15     4     5   ar
    16     5    14    1
    17    14    15    1
    18    15    16    1
    19    16    17    1
    20    17    20    1
    21    20    21    1
    22    21    22    1
    23    22    23   ar
    24    23    24   ar
    25    24    25   ar
    26    25    26    1
    27    25    27   ar
    28    27    28    1
    29    27    29   ar
    30    17    18    1
    31    18    19    1
    32     5     6   ar
    33     6     7   ar
    34     7     8   ar
    35     8     9   ar
    36     3    10    1
    37    10    11    1
    38    11    12    1
    39    12    13    1
    40    39    40   ar
    41    40    43    1
    42    43    44    1
    43    40    35   ar
    44     9     1   ar
    45    13     2    1
    46     9     4   ar
    47    19    14    1
    48    29    22   ar
    49    30    33    1
@<TRIPOS>MOLECULE
*****
 44 49 0 0 0
SMALL
GASTEIGER

@<TRIPOS>ATOM
      1 C          62.0717   87.5742   10.8702 C.ar    1  UNL1        0.0841
      2 C          62.4379   89.0131   10.6571 C.ar    1  UNL1        0.0430
      3 N          61.7508   89.4865    9.4106 N.ar    1  UNL1       -0.3271
      4 C          60.9600   88.3402    8.8534 C.ar    1  UNL1        0.1098
      5 C          60.0849   88.2198    7.6411 C.ar    1  UNL1        0.1509
      6 N          59.4081   86.9176    7.3308 N.ar    1  UNL1       -0.2075
      7 C          59.6064   85.7357    8.2329 C.ar    1  UNL1        0.2001
      8 N          60.4815   85.8560    9.4453 N.ar    1  UNL1       -0.2222
      9 C          61.1583   87.1583    9.7555 C.ar    1  UNL1        0.1069
     10 C          61.9340   90.9002    8.9440 C.3     1  UNL1        0.1059
     11 C          62.8043   91.8406    9.7239 C.3     1  UNL1        0.0249
     12 C          63.4914   91.3672   10.9704 C.3     1  UNL1        0.0082
     13 C          63.3082   89.9534   11.4370 C.3     1  UNL1        0.0441
     14 N          59.8865   89.4017    6.7389 N.pl3   1  UNL1       -0.2892
     15 C          58.5293   90.0273    6.6099 C.3     1  UNL1        0.1095
     16 C          58.3310   91.2092    5.7077 C.3     1  UNL1        0.0939
     17 N          59.4899   91.7654    4.9346 N.3     1  UNL1       -0.2695
     18 C          60.8471   91.1398    5.0637 C.3     1  UNL1        0.0939
     19 C          61.0453   89.9579    5.9658 C.3     1  UNL1        0.1095
     20 C          59.2916   92.9472    4.0325 C.3     1  UNL1        0.0769
     21 C          59.6750   92.8585    2.5849 C.3     1  UNL1        0.0437
     22 C          60.9238   93.5313    2.0972 C.ar    1  UNL1       -0.0184
     23 C          60.9184   95.0029    1.8067 C.ar    1  UNL1       -0.0018
     24 C          62.1671   95.6756    1.3190 C.ar    1  UNL1        0.0316
     25 C          63.4213   94.8768    1.1218 C.ar    1  UNL1        0.1674
     26 F          64.6702   95.5496    0.6340 F       1  UNL1       -0.2018
     27 C          63.4267   93.4052    1.4123 C.ar    1  UNL1        0.1671
     28 F          64.6809   92.6064    1.2151 F       1  UNL1       -0.2018
     29 C          62.1779   92.7325    1.9000 C.ar    1  UNL1        0.0277
     30 N          62.0409   85.2931   12.1135 N.am    1  UNL1       -0.2967
     31 C          62.5372   86.7040   11.9999 C.2     1  UNL1        0.2487
     32 O          63.4991   87.2448   13.0160 O.2     1  UNL1       -0.2700
     33 H          61.4096   84.9382   11.4466 H       1  UNL1        0.1501
     34 C          62.5064   84.4229   13.2431 C.3     1  UNL1        0.1197
     35 C          62.7921   80.8227   11.5978 C.ar    1  UNL1        0.1721
     36 C          62.5081   79.9466   12.7818 C.ar    1  UNL1        0.0400
     37 C          62.2236   80.5626   14.1195 C.ar    1  UNL1        0.0030
     38 C          62.2230   82.0547   14.2733 C.ar    1  UNL1        0.0006
     39 C          62.5070   82.9308   13.0893 C.ar    1  UNL1        0.0345
     40 C          62.7915   82.3148   11.7516 C.ar    1  UNL1        0.1700
     41 C          62.7404   78.7662   10.0109 C.3     1  UNL1        0.2526
     42 O          63.0766   80.2067   10.2601 O.3     1  UNL1       -0.4684
     43 O          63.0755   83.1908   10.5676 O.3     1  UNL1       -0.4686
     44 C          64.4908   83.4212   10.1272 C.3     1  UNL1        0.2526
@<TRIPOS>BOND
     1    41    42    1
     2    42    35    1
     3    35    36   ar
     4    36    37   ar
     5    37    38   ar
     6    38    39   ar
     7    39    34    1
     8    34    30    1
     9    30    31   am
    10    31    32    2
    11    31     1    1
    12     1     2   ar
    13     2     3   ar
    14     3     4   ar
    15     4     5   ar
    16     5    14    1
    17    14    15    1
    18    15    16    1
    19    16    17    1
    20    17    20    1
    21    20    21    1
    22    21    22    1
    23    22    23   ar
    24    23    24   ar
    25    24    25   ar
    26    25    26    1
    27    25    27   ar
    28    27    28    1
    29    27    29   ar
    30    17    18    1
    31    18    19    1
    32     5     6   ar
    33     6     7   ar
    34     7     8   ar
    35     8     9   ar
    36     3    10    1
    37    10    11    1
    38    11    12    1
    39    12    13    1
    40    39    40   ar
    41    40    43    1
    42    43    44    1
    43    40    35   ar
    44     9     1   ar
    45    13     2    1
    46     9     4   ar
    47    19    14    1
    48    29    22   ar
    49    30    33    1
@<TRIPOS>MOLECULE
*****
 44 49 0 0 0
SMALL
GASTEIGER

@<TRIPOS>ATOM
      1 C          62.6262   94.8617   -1.1874 C.ar    1  UNL1        0.0841
      2 C          61.2513   94.2624   -1.2079 C.ar    1  UNL1        0.0430
      3 N          61.0201   93.5876    0.1116 N.ar    1  UNL1       -0.3271
      4 C          62.2521   93.7698    0.9476 C.ar    1  UNL1        0.1098
      5 C          62.5984   93.3205    2.3362 C.ar    1  UNL1        0.1509
      6 N          63.9373   93.6586    2.9219 N.ar    1  UNL1       -0.2075
      7 C          64.9299   94.4460    2.1191 C.ar    1  UNL1        0.2001
      8 N          64.5837   94.8954    0.7305 N.ar    1  UNL1       -0.2222
      9 C          63.2448   94.5573    0.1448 C.ar    1  UNL1        0.1069
     10 C          59.7176   92.8943    0.3815 C.3     1  UNL1        0.1059
     11 C          58.6463   92.8759   -0.6683 C.3     1  UNL1        0.0249
     12 C          58.8775   93.5507   -1.9878 C.3     1  UNL1        0.0082
     13 C          60.1800   94.2439   -2.2576 C.3     1  UNL1        0.0441
     14 N          61.6057   92.5330    3.1391 N.pl3   1  UNL1       -0.2892
     15 C          60.1859   93.0048    3.2476 C.3     1  UNL1        0.1095
     16 C          59.1934   92.2173    4.0505 C.3     1  UNL1        0.0939
     17 N          59.6205   90.9582    4.7449 N.3     1  UNL1       -0.2695
     18 C          61.0403   90.4865    4.6363 C.3     1  UNL1        0.0939
     19 C          62.0328   91.2740    3.8334 C.3     1  UNL1        0.1095
     20 C          58.6279   90.1707    5.5477 C.3     1  UNL1        0.0769
     21 C          58.6784   90.2065    7.0465 C.3     1  UNL1        0.0437
     22 C          59.6170   89.3008    7.7872 C.ar    1  UNL1       -0.0184
     23 C          59.5703   87.8198    7.5540 C.ar    1  UNL1       -0.0018
     24 C          60.5089   86.9140    8.2946 C.ar    1  UNL1        0.0316
     25 C          61.4941   87.4892    9.2685 C.ar    1  UNL1        0.1674
     26 F          62.4327   86.5833   10.0092 F       1  UNL1       -0.2018
     27 C          61.5408   88.9702    9.5017 C.ar    1  UNL1        0.1671
     28 F          62.5260   89.5454   10.4756 F       1  UNL1       -0.2018
     29 C          60.6022   89.8760    8.7610 C.ar    1  UNL1        0.0277
     30 N          62.5610   95.7805   -3.6167 N.am    1  UNL1       -0.2967
     31 C          63.2696   95.6304   -2.3033 C.2     1  UNL1        0.2487
     32 O          64.6218   96.2491   -2.1056 O.2     1  UNL1       -0.2700
     33 H          61.6736   95.3745   -3.7464 H       1  UNL1        0.1501
     34 C          63.2044   96.5493   -4.7325 C.3     1  UNL1        0.1197
     35 C          64.8656   93.7261   -6.9731 C.ar    1  UNL1        0.1721
     36 C          66.0252   94.4753   -7.5596 C.ar    1  UNL1        0.0400
     37 C          66.2445   95.9158   -7.2037 C.ar    1  UNL1        0.0030
     38 C          65.3043   96.6071   -6.2614 C.ar    1  UNL1        0.0006
     39 C          64.1447   95.8580   -5.6749 C.ar    1  UNL1        0.0345
     40 C          63.9253   94.4174   -6.0308 C.ar    1  UNL1        0.1700
     41 C          65.8153   91.3508   -7.4273 C.3     1  UNL1        0.2526
     42 O          64.6462   92.2855   -7.3290 O.3     1  UNL1       -0.4684
     43 O          62.7657   93.6681   -5.4443 O.3     1  UNL1       -0.4686
     44 C          62.9741   92.7704   -4.2608 C.3     1  UNL1        0.2526
@<TRIPOS>BOND
     1    41    42    1
     2    42    35    1
     3    35    36   ar
     4    36    37   ar
     5    37    38   ar
     6    38    39   ar
     7    39    34    1
     8    34    30    1
     9    30    31   am
    10    31    32    2
    11    31     1    1
    12     1     2   ar
    13     2     3   ar
    14     3     4   ar
    15     4     5   ar
    16     5    14    1
    17    14    15    1
    18    15    16    1
    19    16    17    1
    20    17    20    1
    21    20    21    1
    22    21    22    1
    23    22    23   ar
    24    23    24   ar
    25    24    25   ar
    26    25    26    1
    27    25    27   ar
    28    27    28    1
    29    27    29   ar
    30    17    18    1
    31    18    19    1
    32     5     6   ar
    33     6     7   ar
    34     7     8   ar
    35     8     9   ar
    36     3    10    1
    37    10    11    1
    38    11    12    1
    39    12    13    1
    40    39    40   ar
    41    40    43    1
    42    43    44    1
    43    40    35   ar
    44     9     1   ar
    45    13     2    1
    46     9     4   ar
    47    19    14    1
    48    29    22   ar
    49    30    33    1
@<TRIPOS>MOLECULE
*****
 44 49 0 0 0
SMALL
GASTEIGER

@<TRIPOS>ATOM
      1 C          64.6387   92.3366   12.1129 C.ar    1  UNL1        0.0841
      2 C          63.8939   91.1604   11.5544 C.ar    1  UNL1        0.0430
      3 N          63.7805   90.1275   12.6362 N.ar    1  UNL1       -0.3271
      4 C          64.4553   90.6654   13.8632 C.ar    1  UNL1        0.1098
      5 C          64.6552   90.0883   15.2332 C.ar    1  UNL1        0.1509
      6 N          65.3856   90.8765   16.2798 N.ar    1  UNL1       -0.2075
      7 C          65.9159   92.2418   15.9563 C.ar    1  UNL1        0.2001
      8 N          65.7160   92.8189   14.5863 N.ar    1  UNL1       -0.2222
      9 C          64.9857   92.0307   13.5397 C.ar    1  UNL1        0.1069
     10 C          63.0776   88.8307   12.3642 C.3     1  UNL1        0.1059
     11 C          62.4880   88.5668   11.0105 C.3     1  UNL1        0.0249
     12 C          62.6014   89.5997    9.9287 C.3     1  UNL1        0.0082
     13 C          63.3044   90.8965   10.2007 C.3     1  UNL1        0.0441
     14 N          64.1248   88.7229   15.5567 N.pl3   1  UNL1       -0.2892
     15 C          63.0811   88.5566   16.6211 C.3     1  UNL1        0.1095
     16 C          62.5508   87.1913   16.9446 C.3     1  UNL1        0.0939
     17 N          63.0641   85.9923   16.2036 N.3     1  UNL1       -0.2695
     18 C          64.1078   86.1587   15.1392 C.3     1  UNL1        0.0939
     19 C          64.6381   87.5240   14.8157 C.3     1  UNL1        0.1095
     20 C          62.5338   84.6270   16.5270 C.3     1  UNL1        0.0769
     21 C          61.9179   83.7866   15.4479 C.3     1  UNL1        0.0437
     22 C          62.6348   83.5968   14.1440 C.ar    1  UNL1       -0.0184
     23 C          63.6526   82.5045   13.9999 C.ar    1  UNL1       -0.0018
     24 C          64.3695   82.3146   12.6961 C.ar    1  UNL1        0.0316
     25 C          64.0685   83.2172   11.5364 C.ar    1  UNL1        0.1674
     26 F          64.7854   83.0273   10.2324 F       1  UNL1       -0.2018
     27 C          63.0506   84.3094   11.6805 C.ar    1  UNL1        0.1671
     28 F          62.7496   85.2119   10.5208 F       1  UNL1       -0.2018
     29 C          62.3338   84.4992   12.9844 C.ar    1  UNL1        0.0277
     30 N          65.7866   94.6664   12.0463 N.am    1  UNL1       -0.2967
     31 C          64.9772   93.5974   11.3741 C.2     1  UNL1        0.2487
     32 O          64.5061   93.7893    9.9628 O.2     1  UNL1       -0.2700
     33 H          66.0957   94.5405   12.9725 H       1  UNL1        0.1501
     34 C          66.1250   95.9272   11.3075 C.3     1  UNL1        0.1197
     35 C          67.6491   94.8113    7.8173 C.ar    1  UNL1        0.1721
     36 C          66.9833   95.7865    6.8923 C.ar    1  UNL1        0.0400
     37 C          66.0314   96.8087    7.4391 C.ar    1  UNL1        0.0030
     38 C          65.7454   96.8556    8.9108 C.ar    1  UNL1        0.0006
     39 C          66.4111   95.8803    9.8358 C.ar    1  UNL1        0.0345
     40 C          67.3630   94.8581    9.2890 C.ar    1  UNL1        0.1700
     41 C          68.8233   92.5014    8.0070 C.3     1  UNL1        0.2526
     42 O          68.6010   93.7891    7.2704 O.3     1  UNL1       -0.4684
     43 O          68.0288   93.8828   10.2139 O.3     1  UNL1       -0.4686
     44 C          67.6126   92.4417   10.2103 C.3     1  UNL1        0.2526
@<TRIPOS>BOND
     1    41    42    1
     2    42    35    1
     3    35    36   ar
     4    36    37   ar
     5    37    38   ar
     6    38    39   ar
     7    39    34    1
     8    34    30    1
     9    30    31   am
    10    31    32    2
    11    31     1    1
    12     1     2   ar
    13     2     3   ar
    14     3     4   ar
    15     4     5   ar
    16     5    14    1
    17    14    15    1
    18    15    16    1
    19    16    17    1
    20    17    20    1
    21    20    21    1
    22    21    22    1
    23    22    23   ar
    24    23    24   ar
    25    24    25   ar
    26    25    26    1
    27    25    27   ar
    28    27    28    1
    29    27    29   ar
    30    17    18    1
    31    18    19    1
    32     5     6   ar
    33     6     7   ar
    34     7     8   ar
    35     8     9   ar
    36     3    10    1
    37    10    11    1
    38    11    12    1
    39    12    13    1
    40    39    40   ar
    41    40    43    1
    42    43    44    1
    43    40    35   ar
    44     9     1   ar
    45    13     2    1
    46     9     4   ar
    47    19    14    1
    48    29    22   ar
    49    30    33    1
@<TRIPOS>MOLECULE
*****
 44 49 0 0 0
SMALL
GASTEIGER

@<TRIPOS>ATOM
      1 C          60.4339   88.4662    8.0485 C.ar    1  UNL1        0.0841
      2 C          60.8183   88.9397    9.4189 C.ar    1  UNL1        0.0430
      3 N          61.4653   87.7948   10.1403 N.ar    1  UNL1       -0.3271
      4 C          61.4807   86.6137    9.2158 C.ar    1  UNL1        0.1098
      5 C          61.9927   85.2139    9.3841 C.ar    1  UNL1        0.1509
      6 N          61.8674   84.2291    8.2597 N.ar    1  UNL1       -0.2075
      7 C          61.2299   84.6440    6.9668 C.ar    1  UNL1        0.2001
      8 N          60.7178   86.0438    6.7985 N.ar    1  UNL1       -0.2222
      9 C          60.8432   87.0286    7.9229 C.ar    1  UNL1        0.1069
     10 C          61.9568   87.9756   11.5459 C.3     1  UNL1        0.1059
     11 C          61.8014   89.3014   12.2300 C.3     1  UNL1        0.0249
     12 C          61.1544   90.4464   11.5085 C.3     1  UNL1        0.0082
     13 C          60.6629   90.2655   10.1029 C.3     1  UNL1        0.0441
     14 N          62.6302   84.7989   10.6770 N.pl3   1  UNL1       -0.2892
     15 C          63.9299   84.0500   10.6659 C.3     1  UNL1        0.1095
     16 C          64.5674   83.6351   11.9588 C.3     1  UNL1        0.0939
     17 N          63.9051   83.9689   13.2626 N.3     1  UNL1       -0.2695
     18 C          62.6055   84.7177   13.2737 C.3     1  UNL1        0.0939
     19 C          61.9680   85.1327   11.9808 C.3     1  UNL1        0.1095
     20 C          64.5425   83.5539   14.5555 C.3     1  UNL1        0.0769
     21 C          64.0284   84.1002   15.8545 C.3     1  UNL1        0.0437
     22 C          63.8154   85.5762   16.0156 C.ar    1  UNL1       -0.0184
     23 C          63.0218   86.0971   17.1770 C.ar    1  UNL1       -0.0018
     24 C          62.8087   87.5731   17.3380 C.ar    1  UNL1        0.0316
     25 C          63.3893   88.5282   16.3377 C.ar    1  UNL1        0.1674
     26 F          63.1762   90.0043   16.4987 F       1  UNL1       -0.2018
     27 C          64.1828   88.0073   15.1762 C.ar    1  UNL1        0.1671
     28 F          64.7633   88.9625   14.1759 F       1  UNL1       -0.2018
     29 C          64.3959   86.5313   15.0152 C.ar    1  UNL1        0.0277
     30 N          60.5544   90.2641    6.1769 N.am    1  UNL1       -0.2967
     31 C          59.7586   89.2863    6.9895 C.2     1  UNL1        0.2487
     32 O          58.2873   89.1287    6.7431 O.2     1  UNL1       -0.2700
     33 H          61.5200   90.3676    6.3385 H       1  UNL1        0.1501
     34 C          59.8792   91.0843    5.1179 C.3     1  UNL1        0.1197
     35 C          60.7981   92.9991    1.7655 C.ar    1  UNL1        0.1721
     36 C          62.2713   92.7303    1.6801 C.ar    1  UNL1        0.0400
     37 C          62.9471   91.9127    2.7407 C.ar    1  UNL1        0.0030
     38 C          62.1498   91.3641    3.8866 C.ar    1  UNL1        0.0006
     39 C          60.6766   91.6329    3.9720 C.ar    1  UNL1        0.0345
     40 C          60.0007   92.4505    2.9114 C.ar    1  UNL1        0.1700
     41 C          59.8401   95.2703    0.9445 C.3     1  UNL1        0.2526
     42 O          60.1223   93.8167    0.7049 O.3     1  UNL1       -0.4684
     43 O          58.5275   92.7194    2.9967 O.3     1  UNL1       -0.4686
     44 C          57.6911   91.9989    4.0123 C.3     1  UNL1        0.2526
@<TRIPOS>BOND
     1    41    42    1
     2    42    35    1
     3    35    36   ar
     4    36    37   ar
     5    37    38   ar
     6    38    39   ar
     7    39    34    1
     8    34    30    1
     9    30    31   am
    10    31    32    2
    11    31     1    1
    12     1     2   ar
    13     2     3   ar
    14     3     4   ar
    15     4     5   ar
    16     5    14    1
    17    14    15    1
    18    15    16    1
    19    16    17    1
    20    17    20    1
    21    20    21    1
    22    21    22    1
    23    22    23   ar
    24    23    24   ar
    25    24    25   ar
    26    25    26    1
    27    25    27   ar
    28    27    28    1
    29    27    29   ar
    30    17    18    1
    31    18    19    1
    32     5     6   ar
    33     6     7   ar
    34     7     8   ar
    35     8     9   ar
    36     3    10    1
    37    10    11    1
    38    11    12    1
    39    12    13    1
    40    39    40   ar
    41    40    43    1
    42    43    44    1
    43    40    35   ar
    44     9     1   ar
    45    13     2    1
    46     9     4   ar
    47    19    14    1
    48    29    22   ar
    49    30    33    1
@<TRIPOS>MOLECULE
*****
 44 49 0 0 0
SMALL
GASTEIGER

@<TRIPOS>ATOM
      1 C          63.2211   89.8023   11.5711 C.ar    1  UNL1        0.0841
      2 C          62.6343   88.5933   10.9048 C.ar    1  UNL1        0.0430
      3 N          62.8321   87.4193   11.8172 N.ar    1  UNL1       -0.3271
      4 C          63.5412   87.9028   13.0475 C.ar    1  UNL1        0.1098
      5 C          63.9990   87.1922   14.2866 C.ar    1  UNL1        0.1509
      6 N          64.6973   87.9544   15.3736 N.ar    1  UNL1       -0.2075
      7 C          64.9377   89.4271   15.2215 C.ar    1  UNL1        0.2001
      8 N          64.4799   90.1377   13.9824 N.ar    1  UNL1       -0.2222
      9 C          63.7816   89.3755   12.8954 C.ar    1  UNL1        0.1069
     10 C          62.3410   86.0618   11.4100 C.3     1  UNL1        0.1059
     11 C          61.6520   85.8783   10.0903 C.3     1  UNL1        0.0249
     12 C          61.4542   87.0523    9.1779 C.3     1  UNL1        0.0082
     13 C          61.9453   88.4098    9.5851 C.3     1  UNL1        0.0441
     14 N          63.7586   85.7194   14.4388 N.pl3   1  UNL1       -0.2892
     15 C          62.6255   85.2285   15.2904 C.3     1  UNL1        0.1095
     16 C          62.3851   83.7557   15.4425 C.3     1  UNL1        0.0939
     17 N          63.2778   82.7739   14.7431 N.3     1  UNL1       -0.2695
     18 C          64.4108   83.2648   13.8915 C.3     1  UNL1        0.0939
     19 C          64.6512   84.7376   13.7394 C.3     1  UNL1        0.1095
     20 C          63.0374   81.3011   14.8952 C.3     1  UNL1        0.0769
     21 C          62.0184   80.6146   14.0346 C.3     1  UNL1        0.0437
     22 C          62.3888   80.1541   12.6560 C.ar    1  UNL1       -0.0184
     23 C          62.7219   81.1594   11.5937 C.ar    1  UNL1       -0.0018
     24 C          63.0923   80.6990   10.2151 C.ar    1  UNL1        0.0316
     25 C          63.1297   79.2332    9.8987 C.ar    1  UNL1        0.1674
     26 F          63.5002   78.7727    8.5200 F       1  UNL1       -0.2018
     27 C          62.7967   78.2279   10.9610 C.ar    1  UNL1        0.1671
     28 F          62.8341   76.7621   10.6446 F       1  UNL1       -0.2018
     29 C          62.4262   78.6884   12.3396 C.ar    1  UNL1        0.0277
     30 N          64.2645   92.1804   11.4950 N.am    1  UNL1       -0.2967
     31 C          63.2435   91.1938   11.0114 C.2     1  UNL1        0.2487
     32 O          62.2447   91.5987    9.9679 O.2     1  UNL1       -0.2700
     33 H          64.9200   91.9147   12.1798 H       1  UNL1        0.1501
     34 C          64.2869   93.5719   10.9353 C.3     1  UNL1        0.1197
     35 C          67.9843   93.7623    9.5061 C.ar    1  UNL1        0.1721
     36 C          67.9356   95.0663    8.7664 C.ar    1  UNL1        0.0400
     37 C          66.6706   95.8721    8.7497 C.ar    1  UNL1        0.0030
     38 C          65.4544   95.3740    9.4726 C.ar    1  UNL1        0.0006
     39 C          65.5031   94.0700   10.2123 C.ar    1  UNL1        0.0345
     40 C          66.7681   93.2641   10.2290 C.ar    1  UNL1        0.1700
     41 C          69.4817   91.9034    8.4801 C.3     1  UNL1        0.2526
     42 O          69.2494   92.9564    9.5228 O.3     1  UNL1       -0.4684
     43 O          66.8169   91.9601   10.9687 O.3     1  UNL1       -0.4686
     44 C          67.4518   91.8909   12.3260 C.3     1  UNL1        0.2526
@<TRIPOS>BOND
     1    41    42    1
     2    42    35    1
     3    35    36   ar
     4    36    37   ar
     5    37    38   ar
     6    38    39   ar
     7    39    34    1
     8    34    30    1
     9    30    31   am
    10    31    32    2
    11    31     1    1
    12     1     2   ar
    13     2     3   ar
    14     3     4   ar
    15     4     5   ar
    16     5    14    1
    17    14    15    1
    18    15    16    1
    19    16    17    1
    20    17    20    1
    21    20    21    1
    22    21    22    1
    23    22    23   ar
    24    23    24   ar
    25    24    25   ar
    26    25    26    1
    27    25    27   ar
    28    27    28    1
    29    27    29   ar
    30    17    18    1
    31    18    19    1
    32     5     6   ar
    33     6     7   ar
    34     7     8   ar
    35     8     9   ar
    36     3    10    1
    37    10    11    1
    38    11    12    1
    39    12    13    1
    40    39    40   ar
    41    40    43    1
    42    43    44    1
    43    40    35   ar
    44     9     1   ar
    45    13     2    1
    46     9     4   ar
    47    19    14    1
    48    29    22   ar
    49    30    33    1
@<TRIPOS>MOLECULE
*****
 44 49 0 0 0
SMALL
GASTEIGER

@<TRIPOS>ATOM
      1 C          60.3579   88.3366    8.3653 C.ar    1  UNL1        0.0841
      2 C          61.0807   87.0233    8.3095 C.ar    1  UNL1        0.0430
      3 N          61.7064   86.7813    9.6512 N.ar    1  UNL1       -0.3271
      4 C          61.3703   87.9449   10.5360 C.ar    1  UNL1        0.1098
      5 C          61.7155   88.2535   11.9628 C.ar    1  UNL1        0.1509
      6 N          61.2273   89.5232   12.5949 N.ar    1  UNL1       -0.2075
      7 C          60.3939   90.4844   11.8002 C.ar    1  UNL1        0.2001
      8 N          60.0487   90.1759   10.3734 N.ar    1  UNL1       -0.2222
      9 C          60.5369   88.9061    9.7414 C.ar    1  UNL1        0.1069
     10 C          62.5013   85.5326    9.8937 C.3     1  UNL1        0.1059
     11 C          62.6706   84.5260    8.7946 C.3     1  UNL1        0.0249
     12 C          62.0449   84.7680    7.4530 C.3     1  UNL1        0.0082
     13 C          61.2499   86.0167    7.2105 C.3     1  UNL1        0.0441
     14 N          62.5489   87.2922   12.7576 N.pl3   1  UNL1       -0.2892
     15 C          62.1920   85.8356   12.7855 C.3     1  UNL1        0.1095
     16 C          63.0255   84.8744   13.5803 C.3     1  UNL1        0.0939
     17 N          64.2157   85.3700   14.3470 N.3     1  UNL1       -0.2695
     18 C          64.5725   86.8266   14.3190 C.3     1  UNL1        0.0939
     19 C          63.7391   87.7877   13.5242 C.3     1  UNL1        0.1095
     20 C          65.0491   84.4088   15.1417 C.3     1  UNL1        0.0769
     21 C          64.7638   82.9376   15.0773 C.3     1  UNL1        0.0437
     22 C          64.2900   82.3209   13.7946 C.ar    1  UNL1       -0.0184
     23 C          64.7497   82.8781   12.4800 C.ar    1  UNL1       -0.0018
     24 C          64.2760   82.2615   11.1973 C.ar    1  UNL1        0.0316
     25 C          63.3425   81.0878   11.2292 C.ar    1  UNL1        0.1674
     26 F          62.8688   80.4712    9.9465 F       1  UNL1       -0.2018
     27 C          62.8828   80.5307   12.5439 C.ar    1  UNL1        0.1671
     28 F          61.9494   79.3569   12.5758 F       1  UNL1       -0.2018
     29 C          63.3566   81.1473   13.8266 C.ar    1  UNL1        0.0277
     30 N          60.2291   90.0394    6.4074 N.am    1  UNL1       -0.2967
     31 C          59.5908   88.9691    7.2422 C.2     1  UNL1        0.2487
     32 O          58.1854   88.5312    6.9538 O.2     1  UNL1       -0.2700
     33 H          61.1515   90.3268    6.5966 H       1  UNL1        0.1501
     34 C          59.4620   90.6720    5.2842 C.3     1  UNL1        0.1197
     35 C          60.1408   93.1709    2.2768 C.ar    1  UNL1        0.1721
     36 C          61.6294   93.0497    2.1379 C.ar    1  UNL1        0.0400
     37 C          62.3955   92.1358    3.0478 C.ar    1  UNL1        0.0030
     38 C          61.6730   91.3433    4.0966 C.ar    1  UNL1        0.0006
     39 C          60.1845   91.4645    4.2355 C.ar    1  UNL1        0.0345
     40 C          59.4183   92.3784    3.3256 C.ar    1  UNL1        0.1700
     41 C          58.7677   93.5496    0.1040 C.3     1  UNL1        0.2526
     42 O          59.3747   94.0848    1.3670 O.3     1  UNL1       -0.4684
     43 O          57.9297   92.4997    3.4644 O.3     1  UNL1       -0.4686
     44 C          57.2309   91.8653    4.6303 C.3     1  UNL1        0.2526
@<TRIPOS>BOND
     1    41    42    1
     2    42    35    1
     3    35    36   ar
     4    36    37   ar
     5    37    38   ar
     6    38    39   ar
     7    39    34    1
     8    34    30    1
     9    30    31   am
    10    31    32    2
    11    31     1    1
    12     1     2   ar
    13     2     3   ar
    14     3     4   ar
    15     4     5   ar
    16     5    14    1
    17    14    15    1
    18    15    16    1
    19    16    17    1
    20    17    20    1
    21    20    21    1
    22    21    22    1
    23    22    23   ar
    24    23    24   ar
    25    24    25   ar
    26    25    26    1
    27    25    27   ar
    28    27    28    1
    29    27    29   ar
    30    17    18    1
    31    18    19    1
    32     5     6   ar
    33     6     7   ar
    34     7     8   ar
    35     8     9   ar
    36     3    10    1
    37    10    11    1
    38    11    12    1
    39    12    13    1
    40    39    40   ar
    41    40    43    1
    42    43    44    1
    43    40    35   ar
    44     9     1   ar
    45    13     2    1
    46     9     4   ar
    47    19    14    1
    48    29    22   ar
    49    30    33    1
@<TRIPOS>MOLECULE
*****
 44 49 0 0 0
SMALL
GASTEIGER

@<TRIPOS>ATOM
      1 C          62.0520   87.5824   10.8322 C.ar    1  UNL1        0.0841
      2 C          62.4203   89.0191   10.6079 C.ar    1  UNL1        0.0430
      3 N          61.7341   89.4836    9.3575 N.ar    1  UNL1       -0.3271
      4 C          60.9418   88.3340    8.8092 C.ar    1  UNL1        0.1098
      5 C          60.0668   88.2054    7.5977 C.ar    1  UNL1        0.1509
      6 N          59.3883   86.9017    7.2976 N.ar    1  UNL1       -0.2075
      7 C          59.5847   85.7267    8.2090 C.ar    1  UNL1        0.2001
      8 N          60.4597   85.8553    9.4205 N.ar    1  UNL1       -0.2222
      9 C          61.1383   87.1590    9.7206 C.ar    1  UNL1        0.1069
     10 C          61.9194   90.8934    8.8798 C.3     1  UNL1        0.1059
     11 C          62.7909   91.8386    9.6525 C.3     1  UNL1        0.0249
     12 C          63.4771   91.3740   10.9029 C.3     1  UNL1        0.0082
     13 C          63.2918   89.9643   11.3805 C.3     1  UNL1        0.0441
     14 N          59.8703   89.3804    6.6862 N.pl3   1  UNL1       -0.2892
     15 C          61.0235   89.9105    5.8866 C.3     1  UNL1        0.1095
     16 C          60.8269   91.0855    4.9752 C.3     1  UNL1        0.0939
     17 N          59.4772   91.7304    4.8633 N.3     1  UNL1       -0.2695
     18 C          58.3241   91.2003    5.6629 C.3     1  UNL1        0.0939
     19 C          58.5207   90.0253    6.5744 C.3     1  UNL1        0.1095
     20 C          59.2807   92.9054    3.9519 C.3     1  UNL1        0.0769
     21 C          60.3905   93.3432    3.0426 C.3     1  UNL1        0.0437
     22 C          60.2293   93.2327    1.5554 C.ar    1  UNL1       -0.0184
     23 C          58.8576   93.2187    0.9487 C.ar    1  UNL1       -0.0018
     24 C          58.6964   93.1082   -0.5385 C.ar    1  UNL1        0.0316
     25 C          59.9069   93.0116   -1.4190 C.ar    1  UNL1        0.1674
     26 F          59.7457   92.9011   -2.9062 F       1  UNL1       -0.2018
     27 C          61.2786   93.0256   -0.8122 C.ar    1  UNL1        0.1671
     28 F          62.4892   92.9290   -1.6927 F       1  UNL1       -0.2018
     29 C          61.4398   93.1361    0.6750 C.ar    1  UNL1        0.0277
     30 N          62.0072   85.3157   12.1011 N.am    1  UNL1       -0.2967
     31 C          62.5161   86.7204   11.9688 C.2     1  UNL1        0.2487
     32 O          63.4892   87.2633   12.9730 O.2     1  UNL1       -0.2700
     33 H          61.3685   84.9594   11.4420 H       1  UNL1        0.1501
     34 C          62.4713   84.4538   13.2377 C.3     1  UNL1        0.1197
     35 C          62.7894   80.8483   11.6100 C.ar    1  UNL1        0.1721
     36 C          62.5064   79.9755   12.7966 C.ar    1  UNL1        0.0400
     37 C          62.2117   80.5955   14.1303 C.ar    1  UNL1        0.0030
     38 C          62.2000   82.0883   14.2773 C.ar    1  UNL1        0.0006
     39 C          62.4830   82.9610   13.0907 C.ar    1  UNL1        0.0345
     40 C          62.7777   82.3410   11.7570 C.ar    1  UNL1        0.1700
     41 C          62.7284   78.7936   10.0211 C.3     1  UNL1        0.2526
     42 O          63.0841   80.2283   10.2763 O.3     1  UNL1       -0.4684
     43 O          63.0607   83.2137   10.5703 O.3     1  UNL1       -0.4686
     44 C          64.4747   83.4312   10.1193 C.3     1  UNL1        0.2526
@<TRIPOS>BOND
     1    41    42    1
     2    42    35    1
     3    35    36   ar
     4    36    37   ar
     5    37    38   ar
     6    38    39   ar
     7    39    34    1
     8    34    30    1
     9    30    31   am
    10    31    32    2
    11    31     1    1
    12     1     2   ar
    13     2     3   ar
    14     3     4   ar
    15     4     5   ar
    16     5    14    1
    17    14    15    1
    18    15    16    1
    19    16    17    1
    20    17    20    1
    21    20    21    1
    22    21    22    1
    23    22    23   ar
    24    23    24   ar
    25    24    25   ar
    26    25    26    1
    27    25    27   ar
    28    27    28    1
    29    27    29   ar
    30    17    18    1
    31    18    19    1
    32     5     6   ar
    33     6     7   ar
    34     7     8   ar
    35     8     9   ar
    36     3    10    1
    37    10    11    1
    38    11    12    1
    39    12    13    1
    40    39    40   ar
    41    40    43    1
    42    43    44    1
    43    40    35   ar
    44     9     1   ar
    45    13     2    1
    46     9     4   ar
    47    19    14    1
    48    29    22   ar
    49    30    33    1
