@<TRIPOS>MOLECULE
*****
 26 29 0 0 0
SMALL
GASTEIGER

@<TRIPOS>ATOM
      1 C          62.6913   88.9352   11.6013 C.2     1  UNL1        0.0905
      2 C          63.3900   89.4465   12.8262 C.2     1  UNL1        0.0324
      3 C          63.5391   90.9232   13.0432 C.3     1  UNL1        0.0472
      4 N          63.9396   88.4811   13.8341 N.pl3   1  UNL1       -0.2873
      5 C          63.7905   87.0044   13.6171 C.ar    1  UNL1        0.2020
      6 N          64.2263   85.8214   14.4299 N.ar    1  UNL1       -0.2135
      7 C          63.7969   84.5790   13.7074 C.ar    1  UNL1        0.0999
      8 C          63.9538   83.1233   14.0335 C.ar    1  UNL1        0.0207
      9 C          63.4096   82.0828   13.1003 C.ar    1  UNL1        0.0016
     10 C          62.7084   82.4979   11.8409 C.ar    1  UNL1        0.0016
     11 C          62.5515   83.9535   11.5148 C.ar    1  UNL1        0.0188
     12 C          63.0957   84.9941   12.4480 C.ar    1  UNL1        0.0805
     13 N          63.0918   86.4930   12.3922 N.ar    1  UNL1       -0.2904
     14 C          62.5422   87.4585   11.3843 C.3     1  UNL1        0.1740
     15 H          64.3982   88.8167   14.6380 H       1  UNL1        0.1547
     16 C          61.8434   86.9472   10.1594 C.ar    1  UNL1        0.1426
     17 N          62.5013   86.3192    8.9665 N.ar    1  UNL1       -0.2273
     18 C          61.4285   85.9580    7.9823 C.ar    1  UNL1        0.1187
     19 C          60.1078   86.3628    8.5667 C.ar    1  UNL1        0.0943
     20 N          60.3641   86.9741    9.9123 N.ar    1  UNL1       -0.3378
     21 H          59.6814   87.3304   10.5256 H       1  UNL1        0.1672
     22 C          62.1416   89.9006   10.5933 C.2     1  UNL1        0.3403
     23 O          63.0677   90.8176    9.8507 O.2     1  UNL1       -0.2451
     24 O          60.6661   89.9490   10.3281 O.3     1  UNL1       -0.4456
     25 C          59.1179   89.4024   12.3416 C.3     1  UNL1        0.0513
     26 C          59.7252   90.4035   11.4041 C.3     1  UNL1        0.2089
@<TRIPOS>BOND
     1    25    26    1
     2    26    24    1
     3    24    22    1
     4    22    23    2
     5    22     1    1
     6     1     2    2
     7     2     3    1
     8     2     4    1
     9     4     5    1
    10     5     6   ar
    11     6     7   ar
    12     7     8   ar
    13     8     9   ar
    14     9    10   ar
    15    10    11   ar
    16    11    12   ar
    17    12    13   ar
    18    13    14    1
    19    14    16    1
    20    16    17   ar
    21    17    18   ar
    22    18    19   ar
    23    19    20   ar
    24    14     1    1
    25    20    16   ar
    26    13     5   ar
    27    12     7   ar
    28     4    15    1
    29    20    21    1
@<TRIPOS>MOLECULE
*****
 26 29 0 0 0
SMALL
GASTEIGER

@<TRIPOS>ATOM
      1 C          62.6472   89.5256   11.7444 C.2     1  UNL1        0.0905
      2 C          62.6564   90.2969   10.4579 C.2     1  UNL1        0.0324
      3 C          61.7875   89.8606    9.3157 C.3     1  UNL1        0.0472
      4 N          63.5345   91.5044   10.3137 N.pl3   1  UNL1       -0.2873
      5 C          64.4034   91.9407   11.4559 C.ar    1  UNL1        0.2020
      6 N          65.3655   93.0816   11.6064 N.ar    1  UNL1       -0.2135
      7 C          65.9509   93.0155   12.9859 C.ar    1  UNL1        0.0999
      8 C          66.9530   93.8787   13.6934 C.ar    1  UNL1        0.0207
      9 C          67.3548   93.5601   15.1030 C.ar    1  UNL1        0.0016
     10 C          66.7545   92.3783   15.8051 C.ar    1  UNL1        0.0016
     11 C          65.7524   91.5151   15.0976 C.ar    1  UNL1        0.0188
     12 C          65.3506   91.8337   13.6880 C.ar    1  UNL1        0.0805
     13 N          64.3942   91.1694   12.7424 N.ar    1  UNL1       -0.2904
     14 C          63.5161   89.9619   12.8867 C.3     1  UNL1        0.1740
     15 H          63.5405   92.0106    9.4693 H       1  UNL1        0.1547
     16 C          63.5069   89.1906   14.1732 C.ar    1  UNL1        0.1426
     17 N          62.8824   89.6344   15.4628 N.ar    1  UNL1       -0.2273
     18 C          63.1101   88.5581   16.4825 C.ar    1  UNL1        0.1187
     19 C          63.8752   87.4492   15.8232 C.ar    1  UNL1        0.0943
     20 N          64.1205   87.8401   14.3959 N.ar    1  UNL1       -0.3378
     21 H          64.6000   87.3043   13.7234 H       1  UNL1        0.1672
     22 C          61.7691   88.3180   11.8887 C.2     1  UNL1        0.3403
     23 O          60.2852   88.4829   12.0339 O.2     1  UNL1       -0.2451
     24 O          62.3748   86.9458   11.8877 O.3     1  UNL1       -0.4456
     25 C          62.0290   86.1764    9.4304 C.3     1  UNL1        0.0513
     26 C          61.9023   85.9181   10.9025 C.3     1  UNL1        0.2089
@<TRIPOS>BOND
     1    25    26    1
     2    26    24    1
     3    24    22    1
     4    22    23    2
     5    22     1    1
     6     1     2    2
     7     2     3    1
     8     2     4    1
     9     4     5    1
    10     5     6   ar
    11     6     7   ar
    12     7     8   ar
    13     8     9   ar
    14     9    10   ar
    15    10    11   ar
    16    11    12   ar
    17    12    13   ar
    18    13    14    1
    19    14    16    1
    20    16    17   ar
    21    17    18   ar
    22    18    19   ar
    23    19    20   ar
    24    14     1    1
    25    20    16   ar
    26    13     5   ar
    27    12     7   ar
    28     4    15    1
    29    20    21    1
@<TRIPOS>MOLECULE
*****
 26 29 0 0 0
SMALL
GASTEIGER

@<TRIPOS>ATOM
      1 C          61.5314   88.6556   10.4000 C.2     1  UNL1        0.0905
      2 C          60.9279   87.6107    9.5089 C.2     1  UNL1        0.0324
      3 C          60.0808   88.0197    8.3405 C.3     1  UNL1        0.0472
      4 N          61.1717   86.1569    9.7861 N.pl3   1  UNL1       -0.2873
      5 C          62.0189   85.7479   10.9545 C.ar    1  UNL1        0.2020
      6 N          62.4314   84.4021   11.4729 N.ar    1  UNL1       -0.2135
      7 C          63.2898   84.6153   12.6844 C.ar    1  UNL1        0.0999
      8 C          63.9793   83.6549   13.6076 C.ar    1  UNL1        0.0207
      9 C          64.7867   84.1720   14.7611 C.ar    1  UNL1        0.0016
     10 C          64.9047   85.6495   14.9914 C.ar    1  UNL1        0.0016
     11 C          64.2152   86.6099   14.0683 C.ar    1  UNL1        0.0188
     12 C          63.4078   86.0928   12.9148 C.ar    1  UNL1        0.0805
     13 N          62.6223   86.7927   11.8456 N.ar    1  UNL1       -0.2904
     14 C          62.3786   88.2466   11.5684 C.3     1  UNL1        0.1740
     15 H          60.7756   85.4711    9.2013 H       1  UNL1        0.1547
     16 C          62.9820   89.2916   12.4595 C.ar    1  UNL1        0.1426
     17 N          62.6508   89.5156   13.9053 N.ar    1  UNL1       -0.2273
     18 C          63.4867   90.6584   14.4005 C.ar    1  UNL1        0.1187
     19 C          64.3345   91.1407   13.2609 C.ar    1  UNL1        0.0943
     20 N          64.0225   90.2959   12.0613 N.ar    1  UNL1       -0.3378
     21 H          64.4293   90.3850   11.1692 H       1  UNL1        0.1672
     22 C          61.2877   90.1095   10.1228 C.2     1  UNL1        0.3403
     23 O          62.4188   90.9877    9.6764 O.2     1  UNL1       -0.2451
     24 O          59.9129   90.6851   10.2919 O.3     1  UNL1       -0.4456
     25 C          58.9424   89.4397   12.3552 C.3     1  UNL1        0.0513
     26 C          59.2765   90.7206   11.6498 C.3     1  UNL1        0.2089
@<TRIPOS>BOND
     1    25    26    1
     2    26    24    1
     3    24    22    1
     4    22    23    2
     5    22     1    1
     6     1     2    2
     7     2     3    1
     8     2     4    1
     9     4     5    1
    10     5     6   ar
    11     6     7   ar
    12     7     8   ar
    13     8     9   ar
    14     9    10   ar
    15    10    11   ar
    16    11    12   ar
    17    12    13   ar
    18    13    14    1
    19    14    16    1
    20    16    17   ar
    21    17    18   ar
    22    18    19   ar
    23    19    20   ar
    24    14     1    1
    25    20    16   ar
    26    13     5   ar
    27    12     7   ar
    28     4    15    1
    29    20    21    1
@<TRIPOS>MOLECULE
*****
 26 29 0 0 0
SMALL
GASTEIGER

@<TRIPOS>ATOM
      1 C          63.3068   84.4408   12.4662 C.2     1  UNL1        0.0905
      2 C          63.8953   84.4898   13.8451 C.2     1  UNL1        0.0324
      3 C          64.2032   83.2159   14.5748 C.3     1  UNL1        0.0472
      4 N          64.1758   85.8126   14.4943 N.pl3   1  UNL1       -0.2873
      5 C          63.8678   87.0865   13.7646 C.ar    1  UNL1        0.2020
      6 N          64.0346   88.5274   14.1465 N.ar    1  UNL1       -0.2135
      7 C          63.5492   89.3690   13.0036 C.ar    1  UNL1        0.0999
      8 C          63.4719   90.8549   12.8133 C.ar    1  UNL1        0.0207
      9 C          62.9279   91.4199   11.5347 C.ar    1  UNL1        0.0016
     10 C          62.4612   90.4991   10.4465 C.ar    1  UNL1        0.0016
     11 C          62.5384   89.0132   10.6368 C.ar    1  UNL1        0.0188
     12 C          63.0824   88.4482   11.9154 C.ar    1  UNL1        0.0805
     13 N          63.2794   87.0375   12.3857 N.ar    1  UNL1       -0.2904
     14 C          62.9989   85.7147   11.7365 C.3     1  UNL1        0.1740
     15 H          64.5620   85.8447   15.3993 H       1  UNL1        0.1547
     16 C          62.4104   85.6657   10.3576 C.ar    1  UNL1        0.1426
     17 N          61.0091   86.0478    9.9829 N.ar    1  UNL1       -0.2273
     18 C          60.8527   85.8442    8.5050 C.ar    1  UNL1        0.1187
     19 C          62.1572   85.3364    7.9663 C.ar    1  UNL1        0.0943
     20 N          63.1200   85.2260    9.1113 N.ar    1  UNL1       -0.3378
     21 H          64.0536   84.9189    9.0547 H       1  UNL1        0.1672
     22 C          63.0263   83.1180   11.8170 C.2     1  UNL1        0.3403
     23 O          63.9400   82.5993   10.7464 O.2     1  UNL1       -0.2451
     24 O          61.8322   82.3139   12.2383 O.3     1  UNL1       -0.4456
     25 C          60.9578   80.8379   14.1893 C.3     1  UNL1        0.0513
     26 C          62.0040   81.1418   13.1584 C.3     1  UNL1        0.2089
@<TRIPOS>BOND
     1    25    26    1
     2    26    24    1
     3    24    22    1
     4    22    23    2
     5    22     1    1
     6     1     2    2
     7     2     3    1
     8     2     4    1
     9     4     5    1
    10     5     6   ar
    11     6     7   ar
    12     7     8   ar
    13     8     9   ar
    14     9    10   ar
    15    10    11   ar
    16    11    12   ar
    17    12    13   ar
    18    13    14    1
    19    14    16    1
    20    16    17   ar
    21    17    18   ar
    22    18    19   ar
    23    19    20   ar
    24    14     1    1
    25    20    16   ar
    26    13     5   ar
    27    12     7   ar
    28     4    15    1
    29    20    21    1
@<TRIPOS>MOLECULE
*****
 26 29 0 0 0
SMALL
GASTEIGER

@<TRIPOS>ATOM
      1 C          63.2979   93.4798    0.2772 C.2     1  UNL1        0.0905
      2 C          62.5145   92.7446    1.3240 C.2     1  UNL1        0.0324
      3 C          63.1530   92.4053    2.6383 C.3     1  UNL1        0.0472
      4 N          61.0927   92.3488    1.0566 N.pl3   1  UNL1       -0.2873
      5 C          60.4542   92.6882   -0.2576 C.ar    1  UNL1        0.2020
      6 N          59.0808   92.4300   -0.8027 N.ar    1  UNL1       -0.2135
      7 C          59.0153   93.0056   -2.1863 C.ar    1  UNL1        0.0999
      8 C          57.9142   93.0500   -3.2039 C.ar    1  UNL1        0.0207
      9 C          58.1461   93.7083   -4.5315 C.ar    1  UNL1        0.0016
     10 C          59.4791   94.3222   -4.8417 C.ar    1  UNL1        0.0016
     11 C          60.5802   94.2778   -3.8241 C.ar    1  UNL1        0.0188
     12 C          60.3483   93.6195   -2.4964 C.ar    1  UNL1        0.0805
     13 N          61.2376   93.4233   -1.3044 N.ar    1  UNL1       -0.2904
     14 C          62.6594   93.8191   -1.0370 C.3     1  UNL1        0.1740
     15 H          60.5785   91.8663    1.7437 H       1  UNL1        0.1547
     16 C          63.4429   94.5543   -2.0838 C.ar    1  UNL1        0.1426
     17 N          64.0924   93.9435   -3.2901 N.ar    1  UNL1       -0.2273
     18 C          64.7653   95.0411   -4.0599 C.ar    1  UNL1        0.1187
     19 C          64.5317   96.3302   -3.3294 C.ar    1  UNL1        0.0943
     20 N          63.7144   96.0294   -2.1081 N.ar    1  UNL1       -0.3378
     21 H          63.4097   96.6849   -1.4398 H       1  UNL1        0.1672
     22 C          64.7199   93.8756    0.5446 C.2     1  UNL1        0.3403
     23 O          65.7952   92.8304    0.5808 O.2     1  UNL1       -0.2451
     24 O          65.0665   95.3166    0.7759 O.3     1  UNL1       -0.4456
     25 C          65.1789   96.5373    3.0665 C.3     1  UNL1        0.0513
     26 C          64.3908   96.0836    1.8736 C.3     1  UNL1        0.2089
@<TRIPOS>BOND
     1    25    26    1
     2    26    24    1
     3    24    22    1
     4    22    23    2
     5    22     1    1
     6     1     2    2
     7     2     3    1
     8     2     4    1
     9     4     5    1
    10     5     6   ar
    11     6     7   ar
    12     7     8   ar
    13     8     9   ar
    14     9    10   ar
    15    10    11   ar
    16    11    12   ar
    17    12    13   ar
    18    13    14    1
    19    14    16    1
    20    16    17   ar
    21    17    18   ar
    22    18    19   ar
    23    19    20   ar
    24    14     1    1
    25    20    16   ar
    26    13     5   ar
    27    12     7   ar
    28     4    15    1
    29    20    21    1
@<TRIPOS>MOLECULE
*****
 26 29 0 0 0
SMALL
GASTEIGER

@<TRIPOS>ATOM
      1 C          60.9338   93.5394    0.5158 C.2     1  UNL1        0.0905
      2 C          59.8736   93.1106    1.4865 C.2     1  UNL1        0.0324
      3 C          60.2032   92.9692    2.9430 C.3     1  UNL1        0.0472
      4 N          58.4839   92.8233    1.0006 N.pl3   1  UNL1       -0.2873
      5 C          58.1544   92.9647   -0.4559 C.ar    1  UNL1        0.2020
      6 N          56.8827   92.7520   -1.2225 N.ar    1  UNL1       -0.2135
      7 C          57.1569   93.0494   -2.6669 C.ar    1  UNL1        0.0999
      8 C          56.2806   93.0104   -3.8836 C.ar    1  UNL1        0.0207
      9 C          56.8453   93.3678   -5.2265 C.ar    1  UNL1        0.0016
     10 C          58.2865   93.7642   -5.3526 C.ar    1  UNL1        0.0016
     11 C          59.1629   93.8032   -4.1359 C.ar    1  UNL1        0.0188
     12 C          58.5981   93.4458   -2.7931 C.ar    1  UNL1        0.0805
     13 N          59.2145   93.3934   -1.4266 N.ar    1  UNL1       -0.2904
     14 C          60.6042   93.6808   -0.9407 C.3     1  UNL1        0.1740
     15 H          57.7881   92.5418    1.6377 H       1  UNL1        0.1547
     16 C          61.6645   94.1096   -1.9114 C.ar    1  UNL1        0.1426
     17 N          61.9441   95.5177   -2.3465 N.ar    1  UNL1       -0.2273
     18 C          63.0837   95.4838   -3.3213 C.ar    1  UNL1        0.1187
     19 C          63.5082   94.0550   -3.4888 C.ar    1  UNL1        0.0943
     20 N          62.6311   93.2056   -2.6174 N.ar    1  UNL1       -0.3378
     21 H          62.6811   92.2267   -2.5250 H       1  UNL1        0.1672
     22 C          62.3236   93.8268    1.0016 C.2     1  UNL1        0.3403
     23 O          62.7555   95.2427    1.2441 O.2     1  UNL1       -0.2451
     24 O          63.2814   92.6984    1.2450 O.3     1  UNL1       -0.4456
     25 C          63.3460   90.9004    3.1193 C.3     1  UNL1        0.0513
     26 C          63.6261   92.2967    2.6485 C.3     1  UNL1        0.2089
@<TRIPOS>BOND
     1    25    26    1
     2    26    24    1
     3    24    22    1
     4    22    23    2
     5    22     1    1
     6     1     2    2
     7     2     3    1
     8     2     4    1
     9     4     5    1
    10     5     6   ar
    11     6     7   ar
    12     7     8   ar
    13     8     9   ar
    14     9    10   ar
    15    10    11   ar
    16    11    12   ar
    17    12    13   ar
    18    13    14    1
    19    14    16    1
    20    16    17   ar
    21    17    18   ar
    22    18    19   ar
    23    19    20   ar
    24    14     1    1
    25    20    16   ar
    26    13     5   ar
    27    12     7   ar
    28     4    15    1
    29    20    21    1
@<TRIPOS>MOLECULE
*****
 26 29 0 0 0
SMALL
GASTEIGER

@<TRIPOS>ATOM
      1 C          71.7838   70.5019   14.4015 C.2     1  UNL1        0.0905
      2 C          71.5110   70.6116   15.8724 C.2     1  UNL1        0.0324
      3 C          71.4186   69.3724   16.7126 C.3     1  UNL1        0.0472
      4 N          71.3307   71.9605   16.5031 N.pl3   1  UNL1       -0.2873
      5 C          71.4231   73.1997   15.6630 C.ar    1  UNL1        0.2020
      6 N          71.2905   74.6548   16.0025 N.ar    1  UNL1       -0.2135
      7 C          71.4813   75.4443   14.7414 C.ar    1  UNL1        0.0999
      8 C          71.4593   76.9189   14.4675 C.ar    1  UNL1        0.0207
      9 C          71.6879   77.4264   13.0746 C.ar    1  UNL1        0.0016
     10 C          71.9384   76.4593   11.9557 C.ar    1  UNL1        0.0016
     11 C          71.9604   74.9847   12.2296 C.ar    1  UNL1        0.0188
     12 C          71.7318   74.4772   13.6225 C.ar    1  UNL1        0.0805
     13 N          71.6958   73.0900   14.1921 N.ar    1  UNL1       -0.2904
     14 C          71.8762   71.7411   13.5613 C.3     1  UNL1        0.1740
     15 H          71.1516   72.0326   17.4685 H       1  UNL1        0.1547
     16 C          72.1490   71.6313   12.0904 C.ar    1  UNL1        0.1426
     17 N          71.1310   71.3591   11.0228 N.ar    1  UNL1       -0.2273
     18 C          71.8406   71.3340    9.7015 C.ar    1  UNL1        0.1187
     19 C          73.2969   71.5908    9.9524 C.ar    1  UNL1        0.0943
     20 N          73.4876   71.7746   11.4288 N.ar    1  UNL1       -0.3378
     21 H          74.3413   71.9571   11.8838 H       1  UNL1        0.1672
     22 C          71.9642   69.1529   13.7707 C.2     1  UNL1        0.3403
     23 O          73.3440   68.6196   13.5226 O.2     1  UNL1       -0.2451
     24 O          70.7647   68.3375   13.3881 O.3     1  UNL1       -0.4456
     25 C          68.7580   68.7963   11.8030 C.3     1  UNL1        0.0513
     26 C          69.4545   69.0140   13.1135 C.3     1  UNL1        0.2089
@<TRIPOS>BOND
     1    25    26    1
     2    26    24    1
     3    24    22    1
     4    22    23    2
     5    22     1    1
     6     1     2    2
     7     2     3    1
     8     2     4    1
     9     4     5    1
    10     5     6   ar
    11     6     7   ar
    12     7     8   ar
    13     8     9   ar
    14     9    10   ar
    15    10    11   ar
    16    11    12   ar
    17    12    13   ar
    18    13    14    1
    19    14    16    1
    20    16    17   ar
    21    17    18   ar
    22    18    19   ar
    23    19    20   ar
    24    14     1    1
    25    20    16   ar
    26    13     5   ar
    27    12     7   ar
    28     4    15    1
    29    20    21    1
@<TRIPOS>MOLECULE
*****
 26 29 0 0 0
SMALL
GASTEIGER

@<TRIPOS>ATOM
      1 C          62.3783   93.7004   -0.4400 C.2     1  UNL1        0.0905
      2 C          63.8452   93.8235   -0.7279 C.2     1  UNL1        0.0324
      3 C          64.8411   93.7049    0.3876 C.3     1  UNL1        0.0472
      4 N          64.3164   94.0651   -2.1313 N.pl3   1  UNL1       -0.2873
      5 C          63.3205   94.1837   -3.2468 C.ar    1  UNL1        0.2020
      6 N          63.4857   94.4195   -4.7189 N.ar    1  UNL1       -0.2135
      7 C          62.1209   94.4421   -5.3408 C.ar    1  UNL1        0.0999
      8 C          61.6663   94.6361   -6.7570 C.ar    1  UNL1        0.0207
      9 C          60.2030   94.6082   -7.0855 C.ar    1  UNL1        0.0016
     10 C          59.1943   94.3864   -5.9977 C.ar    1  UNL1        0.0016
     11 C          59.6489   94.1924   -4.5815 C.ar    1  UNL1        0.0188
     12 C          61.1122   94.2203   -4.2530 C.ar    1  UNL1        0.0805
     13 N          61.8536   94.0606   -2.9589 N.ar    1  UNL1       -0.2904
     14 C          61.3825   93.8189   -1.5555 C.3     1  UNL1        0.1740
     15 H          65.2792   94.1459   -2.3203 H       1  UNL1        0.1547
     16 C          59.9155   93.6958   -1.2675 C.ar    1  UNL1        0.1426
     17 N          58.9703   94.8305   -1.0044 N.ar    1  UNL1       -0.2273
     18 C          57.6069   94.2522   -0.7664 C.ar    1  UNL1        0.1187
     19 C          57.7093   92.7603   -0.8823 C.ar    1  UNL1        0.0943
     20 N          59.1361   92.4163   -1.1921 N.ar    1  UNL1       -0.3378
     21 H          59.4976   91.5100   -1.3229 H       1  UNL1        0.1672
     22 C          61.9071   93.4587    0.9635 C.2     1  UNL1        0.3403
     23 O          61.3030   94.5803    1.7553 O.2     1  UNL1       -0.2451
     24 O          62.0400   92.0955    1.5750 O.3     1  UNL1       -0.4456
     25 C          63.5178   90.7505    3.2354 C.3     1  UNL1        0.0513
     26 C          62.6551   91.9399    2.9342 C.3     1  UNL1        0.2089
@<TRIPOS>BOND
     1    25    26    1
     2    26    24    1
     3    24    22    1
     4    22    23    2
     5    22     1    1
     6     1     2    2
     7     2     3    1
     8     2     4    1
     9     4     5    1
    10     5     6   ar
    11     6     7   ar
    12     7     8   ar
    13     8     9   ar
    14     9    10   ar
    15    10    11   ar
    16    11    12   ar
    17    12    13   ar
    18    13    14    1
    19    14    16    1
    20    16    17   ar
    21    17    18   ar
    22    18    19   ar
    23    19    20   ar
    24    14     1    1
    25    20    16   ar
    26    13     5   ar
    27    12     7   ar
    28     4    15    1
    29    20    21    1
@<TRIPOS>MOLECULE
*****
 26 29 0 0 0
SMALL
GASTEIGER

@<TRIPOS>ATOM
      1 C          61.2503   93.8739    0.7172 C.2     1  UNL1        0.0905
      2 C          62.7039   93.5671    0.9245 C.2     1  UNL1        0.0324
      3 C          63.2324   93.3397    2.3098 C.3     1  UNL1        0.0472
      4 N          63.6291   93.4878   -0.2536 N.pl3   1  UNL1       -0.2873
      5 C          63.1006   93.7152   -1.6389 C.ar    1  UNL1        0.2020
      6 N          63.7676   93.7017   -2.9824 N.ar    1  UNL1       -0.2135
      7 C          62.7262   94.0002   -4.0199 C.ar    1  UNL1        0.0999
      8 C          62.8020   94.1172   -5.5134 C.ar    1  UNL1        0.0207
      9 C          61.5673   94.4323   -6.3046 C.ar    1  UNL1        0.0016
     10 C          60.2567   94.6302   -5.6024 C.ar    1  UNL1        0.0016
     11 C          60.1808   94.5131   -4.1089 C.ar    1  UNL1        0.0188
     12 C          61.4156   94.1981   -3.3177 C.ar    1  UNL1        0.0805
     13 N          61.6470   94.0220   -1.8461 N.ar    1  UNL1       -0.2904
     14 C          60.7219   94.1013   -0.6681 C.3     1  UNL1        0.1740
     15 H          64.5831   93.2865   -0.1176 H       1  UNL1        0.1547
     16 C          59.2682   94.4081   -0.8753 C.ar    1  UNL1        0.1426
     17 N          58.1654   93.4006   -1.0132 N.ar    1  UNL1       -0.2273
     18 C          56.8779   94.1462   -1.2041 C.ar    1  UNL1        0.1187
     19 C          57.1848   95.6142   -1.1842 C.ar    1  UNL1        0.0943
     20 N          58.6622   95.7761   -0.9809 N.ar    1  UNL1       -0.3378
     21 H          59.1486   96.6303   -0.9264 H       1  UNL1        0.1672
     22 C          60.3251   93.9533    1.8953 C.2     1  UNL1        0.3403
     23 O          60.0187   95.2821    2.5200 O.2     1  UNL1       -0.2451
     24 O          59.7065   92.7038    2.4486 O.3     1  UNL1       -0.4456
     25 C          58.5839   91.9058    4.6514 C.3     1  UNL1        0.0513
     26 C          59.7898   92.4128    3.9177 C.3     1  UNL1        0.2089
@<TRIPOS>BOND
     1    25    26    1
     2    26    24    1
     3    24    22    1
     4    22    23    2
     5    22     1    1
     6     1     2    2
     7     2     3    1
     8     2     4    1
     9     4     5    1
    10     5     6   ar
    11     6     7   ar
    12     7     8   ar
    13     8     9   ar
    14     9    10   ar
    15    10    11   ar
    16    11    12   ar
    17    12    13   ar
    18    13    14    1
    19    14    16    1
    20    16    17   ar
    21    17    18   ar
    22    18    19   ar
    23    19    20   ar
    24    14     1    1
    25    20    16   ar
    26    13     5   ar
    27    12     7   ar
    28     4    15    1
    29    20    21    1
