@<TRIPOS>MOLECULE
*****
 39 44 0 0 0
SMALL
GASTEIGER

@<TRIPOS>ATOM
      1 C          64.4168   89.9059   13.8258 C.ar    1  UNL1        0.0251
      2 C          64.7147   88.5969   14.4948 C.ar    1  UNL1        0.0233
      3 C          63.9245   87.5296   13.7975 C.ar    1  UNL1        0.0918
      4 N          63.8193   86.0502   14.0221 N.ar    1  UNL1       -0.2262
      5 C          62.9278   85.2203   13.1466 C.ar    1  UNL1        0.1618
      6 N          62.1415   85.8696   12.0466 N.ar    1  UNL1       -0.2116
      7 C          62.2467   87.3490   11.8220 C.ar    1  UNL1        0.1409
      8 C          63.1382   88.1789   12.6975 C.ar    1  UNL1        0.0785
      9 S          63.4425   89.6476   12.7150 S.2     1  UNL1       -0.0856
     10 C          62.8226   83.7408   13.3711 C.2     1  UNL1        0.0422
     11 C          62.4505   83.2123   14.7247 C.2     1  UNL1        0.0983
     12 N          62.3454   81.7329   14.9493 N.2     1  UNL1       -0.2413
     13 C          62.6122   80.7821   13.8202 C.2     1  UNL1        0.1141
     14 C          62.9843   81.3107   12.4666 C.2     1  UNL1        0.0860
     15 N          63.3026   80.6216   11.1728 N.2     1  UNL1       -0.2463
     16 C          63.6045   81.6751   10.1486 C.2     1  UNL1        0.0947
     17 C          63.4728   83.0153   10.8095 C.2     1  UNL1        0.0047
     18 C          63.0894   82.7900   12.2421 C.3     1  UNL1        0.0919
     19 N          61.4604   87.9984   10.7220 N.pl3   1  UNL1       -0.2876
     20 C          61.2585   87.2810    9.4201 C.3     1  UNL1        0.1243
     21 C          60.4723   87.9304    8.3201 C.3     1  UNL1        0.1636
     22 O          59.8878   89.2970    8.5219 O.3     1  UNL1       -0.3501
     23 C          60.0896   90.0143    9.8237 C.3     1  UNL1        0.1636
     24 C          60.8759   89.3650   10.9238 C.3     1  UNL1        0.1243
     25 C          64.9922   91.2392   14.2016 C.3     1  UNL1        0.1058
     26 N          65.9198   94.2704   11.0075 N.3     1  UNL1       -0.2655
     27 C          65.0937   93.0625   10.6780 C.3     1  UNL1        0.0900
     28 C          64.7845   92.0521   11.7427 C.3     1  UNL1        0.0899
     29 N          65.3014   92.2496   13.1369 N.3     1  UNL1       -0.2661
     30 C          66.1275   93.4576   13.4664 C.3     1  UNL1        0.0899
     31 C          66.4367   94.4679   12.4017 C.3     1  UNL1        0.0900
     32 C          67.1398   94.2955    9.2723 C.3     1  UNL1        0.0253
     33 C          66.2290   95.2808    9.9429 C.3     1  UNL1        0.1145
     34 C          65.3182   96.2661   10.6134 C.3     1  UNL1        0.0253
     35 C          66.5383   96.2911    8.8782 C.2     1  UNL1        0.2321
     36 N          67.9409   96.7942    8.7064 N.am    1  UNL1       -0.3278
     37 O          65.4449   96.7984    7.9853 O.2     1  UNL1       -0.2740
     38 H          68.6585   96.4613    9.2924 H       1  UNL1        0.1450
     39 H          68.1439   97.4573    8.0076 H       1  UNL1        0.1450
@<TRIPOS>BOND
     1    32    33    1
     2    33    34    1
     3    33    35    1
     4    35    36   am
     5    35    37    2
     6    33    26    1
     7    26    27    1
     8    27    28    1
     9    28    29    1
    10    29    25    1
    11    25     1    1
    12     1     2   ar
    13     2     3   ar
    14     3     4   ar
    15     4     5   ar
    16     5    10    1
    17    10    11    2
    18    11    12    1
    19    12    13    2
    20    13    14    1
    21    14    15    2
    22    15    16    1
    23    16    17    2
    24    17    18    1
    25     5     6   ar
    26     6     7   ar
    27     7    19    1
    28    19    20    1
    29    20    21    1
    30    21    22    1
    31    22    23    1
    32    23    24    1
    33     7     8   ar
    34     8     9   ar
    35    29    30    1
    36    30    31    1
    37    31    26    1
    38     9     1   ar
    39     8     3   ar
    40    18    10    1
    41    24    19    1
    42    18    14    1
    43    36    38    1
    44    36    39    1
@<TRIPOS>MOLECULE
*****
 39 44 0 0 0
SMALL
GASTEIGER

@<TRIPOS>ATOM
      1 C          64.1033   88.5382   14.6920 C.ar    1  UNL1        0.0251
      2 C          65.1375   89.6247   14.6952 C.ar    1  UNL1        0.0233
      3 C          64.9047   90.4896   13.4920 C.ar    1  UNL1        0.0918
      4 N          65.6133   91.7085   12.9799 N.ar    1  UNL1       -0.2262
      5 C          65.1438   92.3754   11.7209 C.ar    1  UNL1        0.1618
      6 N          63.9659   91.8235   10.9742 N.ar    1  UNL1       -0.2116
      7 C          63.2573   90.6046   11.4863 C.ar    1  UNL1        0.1409
      8 C          63.7267   89.9377   12.7452 C.ar    1  UNL1        0.0785
      9 S          63.2314   88.7316   13.4868 S.2     1  UNL1       -0.0856
     10 C          65.8525   93.5944   11.2088 C.2     1  UNL1        0.0422
     11 C          65.4199   94.9581   11.6594 C.2     1  UNL1        0.0983
     12 N          66.1285   96.1770   11.1473 N.2     1  UNL1       -0.2413
     13 C          67.2696   96.0321   10.1846 C.2     1  UNL1        0.1141
     14 C          67.7022   94.6683    9.7339 C.2     1  UNL1        0.0860
     15 N          68.7852   94.2166    8.7996 N.2     1  UNL1       -0.2463
     16 C          68.7460   92.7186    8.7342 C.2     1  UNL1        0.0947
     17 C          67.6387   92.2445    9.6282 C.2     1  UNL1        0.0047
     18 C          66.9936   93.4495   10.2461 C.3     1  UNL1        0.0919
     19 N          62.0793   90.0527   10.7394 N.pl3   1  UNL1       -0.2876
     20 C          60.7370   90.7106   10.8642 C.3     1  UNL1        0.1243
     21 C          59.5590   90.1587   10.1174 C.3     1  UNL1        0.1636
     22 O          59.7233   88.9489    9.2458 O.3     1  UNL1       -0.3501
     23 C          61.0655   88.2911    9.1211 C.3     1  UNL1        0.1636
     24 C          62.2436   88.8430    9.8679 C.3     1  UNL1        0.1243
     25 C          63.9652   87.4494   15.7145 C.3     1  UNL1        0.1058
     26 N          63.2834   83.2004   14.3986 N.3     1  UNL1       -0.2655
     27 C          64.3359   84.0333   13.7288 C.3     1  UNL1        0.0900
     28 C          64.5631   85.4497   14.1675 C.3     1  UNL1        0.0899
     29 N          63.7379   86.0331   15.2759 N.3     1  UNL1       -0.2661
     30 C          62.6854   85.2002   15.9457 C.3     1  UNL1        0.0899
     31 C          62.4582   83.7839   15.5070 C.3     1  UNL1        0.0900
     32 C          61.6915   81.8104   14.5822 C.3     1  UNL1        0.0253
     33 C          63.0561   81.7841   13.9600 C.3     1  UNL1        0.1145
     34 C          64.4207   81.7578   13.3378 C.3     1  UNL1        0.0253
     35 C          62.8287   80.3678   13.5215 C.2     1  UNL1        0.2321
     36 N          62.6561   80.0521   12.0652 N.am    1  UNL1       -0.3278
     37 O          62.7739   79.2672   14.5390 O.2     1  UNL1       -0.2740
     38 H          62.6921   80.7745   11.3973 H       1  UNL1        0.1450
     39 H          62.5069   79.1225   11.7774 H       1  UNL1        0.1450
@<TRIPOS>BOND
     1    32    33    1
     2    33    34    1
     3    33    35    1
     4    35    36   am
     5    35    37    2
     6    33    26    1
     7    26    27    1
     8    27    28    1
     9    28    29    1
    10    29    25    1
    11    25     1    1
    12     1     2   ar
    13     2     3   ar
    14     3     4   ar
    15     4     5   ar
    16     5    10    1
    17    10    11    2
    18    11    12    1
    19    12    13    2
    20    13    14    1
    21    14    15    2
    22    15    16    1
    23    16    17    2
    24    17    18    1
    25     5     6   ar
    26     6     7   ar
    27     7    19    1
    28    19    20    1
    29    20    21    1
    30    21    22    1
    31    22    23    1
    32    23    24    1
    33     7     8   ar
    34     8     9   ar
    35    29    30    1
    36    30    31    1
    37    31    26    1
    38     9     1   ar
    39     8     3   ar
    40    18    10    1
    41    24    19    1
    42    18    14    1
    43    36    38    1
    44    36    39    1
@<TRIPOS>MOLECULE
*****
 39 44 0 0 0
SMALL
GASTEIGER

@<TRIPOS>ATOM
      1 C          59.6337   88.7860    7.9822 C.ar    1  UNL1        0.0251
      2 C          59.7356   87.2913    8.0552 C.ar    1  UNL1        0.0233
      3 C          60.7575   86.9467    9.0978 C.ar    1  UNL1        0.0918
      4 N          61.2741   85.6314    9.6008 N.ar    1  UNL1       -0.2262
      5 C          62.3204   85.5979   10.6751 C.ar    1  UNL1        0.1618
      6 N          62.8501   86.8796   11.2464 N.ar    1  UNL1       -0.2116
      7 C          62.3335   88.1950   10.7435 C.ar    1  UNL1        0.1409
      8 C          61.2872   88.2285    9.6692 C.ar    1  UNL1        0.0785
      9 S          60.5926   89.3653    8.9797 S.2     1  UNL1       -0.0856
     10 C          62.8371   84.2825   11.1780 C.2     1  UNL1        0.0422
     11 C          63.4074   83.2832   10.2157 C.2     1  UNL1        0.0983
     12 N          63.9241   81.9679   10.7186 N.2     1  UNL1       -0.2413
     13 C          63.8703   81.6518   12.1839 C.2     1  UNL1        0.1141
     14 C          63.3000   82.6510   13.1463 C.2     1  UNL1        0.0860
     15 N          63.1170   82.6197   14.6348 N.2     1  UNL1       -0.2463
     16 C          62.4872   83.9156   15.0518 C.2     1  UNL1        0.0947
     17 C          62.2811   84.7479   13.8210 C.2     1  UNL1        0.0047
     18 C          62.7834   83.9664   12.6434 C.3     1  UNL1        0.0919
     19 N          62.8632   89.4768   11.3148 N.pl3   1  UNL1       -0.2876
     20 C          62.9952   89.6377   12.8004 C.3     1  UNL1        0.1243
     21 C          63.5249   90.9194   13.3717 C.3     1  UNL1        0.1636
     22 O          63.9226   92.0403   12.4576 O.3     1  UNL1       -0.3501
     23 C          63.7907   91.8793   10.9721 C.3     1  UNL1        0.1636
     24 C          63.2609   90.5975   10.4007 C.3     1  UNL1        0.1243
     25 C          58.7313   89.5648    7.0716 C.3     1  UNL1        0.1058
     26 N          60.4794   91.9986    3.7144 N.3     1  UNL1       -0.2655
     27 C          59.0402   92.1755    4.0985 C.3     1  UNL1        0.0900
     28 C          58.4576   91.3641    5.2176 C.3     1  UNL1        0.0899
     29 N          59.3140   90.3761    5.9526 N.3     1  UNL1       -0.2661
     30 C          60.7532   90.1993    5.5684 C.3     1  UNL1        0.0899
     31 C          61.3358   91.0105    4.4493 C.3     1  UNL1        0.0900
     32 C          59.7008   93.3570    2.2831 C.3     1  UNL1        0.0253
     33 C          61.0621   92.8099    2.5953 C.3     1  UNL1        0.1145
     34 C          62.4234   92.2627    2.9075 C.3     1  UNL1        0.0253
     35 C          61.6447   93.6211    1.4762 C.2     1  UNL1        0.2321
     36 N          63.0304   93.3298    0.9811 N.am    1  UNL1       -0.3278
     37 O          60.8417   94.7237    0.8521 O.2     1  UNL1       -0.2740
     38 H          63.5574   92.6061    1.3907 H       1  UNL1        0.1450
     39 H          63.4128   93.8622    0.2466 H       1  UNL1        0.1450
@<TRIPOS>BOND
     1    32    33    1
     2    33    34    1
     3    33    35    1
     4    35    36   am
     5    35    37    2
     6    33    26    1
     7    26    27    1
     8    27    28    1
     9    28    29    1
    10    29    25    1
    11    25     1    1
    12     1     2   ar
    13     2     3   ar
    14     3     4   ar
    15     4     5   ar
    16     5    10    1
    17    10    11    2
    18    11    12    1
    19    12    13    2
    20    13    14    1
    21    14    15    2
    22    15    16    1
    23    16    17    2
    24    17    18    1
    25     5     6   ar
    26     6     7   ar
    27     7    19    1
    28    19    20    1
    29    20    21    1
    30    21    22    1
    31    22    23    1
    32    23    24    1
    33     7     8   ar
    34     8     9   ar
    35    29    30    1
    36    30    31    1
    37    31    26    1
    38     9     1   ar
    39     8     3   ar
    40    18    10    1
    41    24    19    1
    42    18    14    1
    43    36    38    1
    44    36    39    1
@<TRIPOS>MOLECULE
*****
 39 44 0 0 0
SMALL
GASTEIGER

@<TRIPOS>ATOM
      1 C          63.9589   88.2224   13.7257 C.ar    1  UNL1        0.0251
      2 C          64.3298   86.8050   14.0472 C.ar    1  UNL1        0.0233
      3 C          63.6583   85.9119   13.0465 C.ar    1  UNL1        0.0918
      4 N          63.6610   84.4223   12.8698 N.ar    1  UNL1       -0.2262
      5 C          62.8778   83.7982   11.7530 C.ar    1  UNL1        0.1618
      6 N          62.0920   84.6636   10.8131 N.ar    1  UNL1       -0.2116
      7 C          62.0893   86.1531   10.9898 C.ar    1  UNL1        0.1409
      8 C          62.8725   86.7773   12.1065 C.ar    1  UNL1        0.0785
      9 S          63.0583   88.2053   12.5263 S.2     1  UNL1       -0.0856
     10 C          62.8804   82.3086   11.5762 C.2     1  UNL1        0.0422
     11 C          63.4468   81.7026   10.3264 C.2     1  UNL1        0.0983
     12 N          63.4494   80.2131   10.1497 N.2     1  UNL1       -0.2413
     13 C          62.8857   79.3295   11.2228 C.2     1  UNL1        0.1141
     14 C          62.3193   79.9355   12.4726 C.2     1  UNL1        0.0860
     15 N          61.6996   79.3227   13.6935 N.2     1  UNL1       -0.2463
     16 C          61.3139   80.4335   14.6247 C.2     1  UNL1        0.0947
     17 C          61.6953   81.7329   13.9794 C.2     1  UNL1        0.0047
     18 C          62.3167   81.4250   12.6493 C.3     1  UNL1        0.0919
     19 N          61.3035   87.0185   10.0498 N.pl3   1  UNL1       -0.2876
     20 C          61.2548   88.5030   10.2603 C.3     1  UNL1        0.1243
     21 C          60.4690   89.3683    9.3204 C.3     1  UNL1        0.1636
     22 O          59.7319   88.7494    8.1699 O.3     1  UNL1       -0.3501
     23 C          59.7806   87.2651    7.9594 C.3     1  UNL1        0.1636
     24 C          60.5665   86.3996    8.8993 C.3     1  UNL1        0.1243
     25 C          64.4095   89.4428   14.4725 C.3     1  UNL1        0.1058
     26 N          65.8184   93.0706   12.2133 N.3     1  UNL1       -0.2655
     27 C          64.5955   92.3313   11.7573 C.3     1  UNL1        0.0900
     28 C          64.1259   91.1220   12.5105 C.3     1  UNL1        0.0899
     29 N          64.8792   90.6520   13.7195 N.3     1  UNL1       -0.2661
     30 C          66.1021   91.3914   14.1754 C.3     1  UNL1        0.0899
     31 C          66.5717   92.6007   13.4223 C.3     1  UNL1        0.0900
     32 C          66.3570   95.0526   12.7440 C.3     1  UNL1        0.0253
     33 C          66.2880   94.2799   11.4602 C.3     1  UNL1        0.1145
     34 C          66.2191   93.5072   10.1764 C.3     1  UNL1        0.0253
     35 C          66.7577   95.4892   10.7073 C.2     1  UNL1        0.2321
     36 N          66.2963   96.8556   11.1199 N.am    1  UNL1       -0.3278
     37 O          67.6887   95.3322    9.5417 O.2     1  UNL1       -0.2740
     38 H          65.6852   96.9586   11.8848 H       1  UNL1        0.1450
     39 H          66.6045   97.6493   10.6257 H       1  UNL1        0.1450
@<TRIPOS>BOND
     1    32    33    1
     2    33    34    1
     3    33    35    1
     4    35    36   am
     5    35    37    2
     6    33    26    1
     7    26    27    1
     8    27    28    1
     9    28    29    1
    10    29    25    1
    11    25     1    1
    12     1     2   ar
    13     2     3   ar
    14     3     4   ar
    15     4     5   ar
    16     5    10    1
    17    10    11    2
    18    11    12    1
    19    12    13    2
    20    13    14    1
    21    14    15    2
    22    15    16    1
    23    16    17    2
    24    17    18    1
    25     5     6   ar
    26     6     7   ar
    27     7    19    1
    28    19    20    1
    29    20    21    1
    30    21    22    1
    31    22    23    1
    32    23    24    1
    33     7     8   ar
    34     8     9   ar
    35    29    30    1
    36    30    31    1
    37    31    26    1
    38     9     1   ar
    39     8     3   ar
    40    18    10    1
    41    24    19    1
    42    18    14    1
    43    36    38    1
    44    36    39    1
@<TRIPOS>MOLECULE
*****
 39 44 0 0 0
SMALL
GASTEIGER

@<TRIPOS>ATOM
      1 C          59.9962   89.1605    8.3775 C.ar    1  UNL1        0.0251
      2 C          60.3008   90.2866    9.3205 C.ar    1  UNL1        0.0233
      3 C          61.2069   89.7601   10.3937 C.ar    1  UNL1        0.0918
      4 N          61.8324   90.4149   11.5896 N.ar    1  UNL1       -0.2262
      5 C          62.7132   89.6182   12.5058 C.ar    1  UNL1        0.1618
      6 N          62.9685   88.1668   12.2262 N.ar    1  UNL1       -0.2116
      7 C          62.3430   87.5121   11.0304 C.ar    1  UNL1        0.1409
      8 C          61.4622   88.3087   10.1141 C.ar    1  UNL1        0.0785
      9 S          60.7140   87.9381    8.8680 S.2     1  UNL1       -0.0856
     10 C          63.3388   90.2730   13.7017 C.2     1  UNL1        0.0422
     11 C          62.9159   89.8712   15.0836 C.2     1  UNL1        0.0983
     12 N          63.5414   90.5259   16.2794 N.2     1  UNL1       -0.2413
     13 C          64.5898   91.5825   16.0933 C.2     1  UNL1        0.1141
     14 C          65.0127   91.9843   14.7114 C.2     1  UNL1        0.0860
     15 N          66.0138   92.9874   14.2199 N.2     1  UNL1       -0.2463
     16 C          66.0070   92.9526   12.7204 C.2     1  UNL1        0.0947
     17 C          65.0017   91.9279   12.2851 C.2     1  UNL1        0.0047
     18 C          64.3871   91.3295   13.5156 C.3     1  UNL1        0.0919
     19 N          62.5983   86.0606   10.7507 N.pl3   1  UNL1       -0.2876
     20 C          62.9382   85.6132    9.3599 C.3     1  UNL1        0.1243
     21 C          63.1935   84.1619    9.0802 C.3     1  UNL1        0.1636
     22 O          63.1090   83.1578   10.1914 O.3     1  UNL1       -0.3501
     23 C          62.7692   83.6051   11.5822 C.3     1  UNL1        0.1636
     24 C          62.5138   85.0566   11.8619 C.3     1  UNL1        0.1243
     25 C          59.1265   89.2425    7.1581 C.3     1  UNL1        0.1058
     26 N          60.2851   91.9365    3.7449 N.3     1  UNL1       -0.2655
     27 C          58.8617   91.8930    4.2162 C.3     1  UNL1        0.0900
     28 C          58.4756   90.9949    5.3540 C.3     1  UNL1        0.0899
     29 N          59.5128   90.1405    6.0204 N.3     1  UNL1       -0.2661
     30 C          60.9361   90.1840    5.5490 C.3     1  UNL1        0.0899
     31 C          61.3223   91.0820    4.4113 C.3     1  UNL1        0.0900
     32 C          59.2222   93.0955    2.3212 C.3     1  UNL1        0.0253
     33 C          60.6713   92.8345    2.6072 C.3     1  UNL1        0.1145
     34 C          62.1205   92.5736    2.8932 C.3     1  UNL1        0.0253
     35 C          61.0575   93.7325    1.4695 C.2     1  UNL1        0.2321
     36 N          60.3273   95.0248    1.2528 N.am    1  UNL1       -0.3278
     37 O          62.1737   93.3383    0.5483 O.2     1  UNL1       -0.2740
     38 H          59.5946   95.2836    1.8574 H       1  UNL1        0.1450
     39 H          60.5807   95.6142    0.5061 H       1  UNL1        0.1450
@<TRIPOS>BOND
     1    32    33    1
     2    33    34    1
     3    33    35    1
     4    35    36   am
     5    35    37    2
     6    33    26    1
     7    26    27    1
     8    27    28    1
     9    28    29    1
    10    29    25    1
    11    25     1    1
    12     1     2   ar
    13     2     3   ar
    14     3     4   ar
    15     4     5   ar
    16     5    10    1
    17    10    11    2
    18    11    12    1
    19    12    13    2
    20    13    14    1
    21    14    15    2
    22    15    16    1
    23    16    17    2
    24    17    18    1
    25     5     6   ar
    26     6     7   ar
    27     7    19    1
    28    19    20    1
    29    20    21    1
    30    21    22    1
    31    22    23    1
    32    23    24    1
    33     7     8   ar
    34     8     9   ar
    35    29    30    1
    36    30    31    1
    37    31    26    1
    38     9     1   ar
    39     8     3   ar
    40    18    10    1
    41    24    19    1
    42    18    14    1
    43    36    38    1
    44    36    39    1
