@<TRIPOS>MOLECULE
*****
 65 72 0 0 0
SMALL
GASTEIGER

@<TRIPOS>ATOM
      1 N          65.7195   89.5829   14.4255 N.3     1  UNL1       -0.1862
      2 C          66.0279   88.3599   15.2373 C.3     1  UNL1        0.1775
      3 C          65.2201   87.1103   15.0475 C.2     1  UNL1        0.2452
      4 O          65.5286   85.8873   15.8593 O.2     1  UNL1       -0.2732
      5 N          64.1039   87.0838   14.0458 N.am    1  UNL1       -0.2541
      6 C          63.2961   85.8342   13.8560 C.3     1  UNL1        0.1577
      7 C          62.1799   85.8076   12.8544 C.2     1  UNL1        0.2445
      8 O          61.3721   84.5581   12.6645 O.2     1  UNL1       -0.2731
      9 N          61.8714   87.0307   12.0425 N.am    1  UNL1       -0.2705
     10 C          62.6792   88.2803   12.2323 C.3     1  UNL1        0.1359
     11 C          63.7955   88.3068   13.2340 C.3     1  UNL1        0.1908
     12 N          64.6033   89.5563   13.4239 N.am    1  UNL1       -0.1863
     13 C          64.2948   90.7794   12.6120 C.2     1  UNL1        0.3191
     14 O          63.1786   90.7528   11.6104 O.2     1  UNL1       -0.2512
     15 N          65.1026   92.0290   12.8018 N.am    1  UNL1       -0.2836
     16 H          65.8352   92.0464   13.4593 H       1  UNL1        0.1513
     17 C          66.5273   90.8325   14.6153 C.3     1  UNL1        0.1188
     18 C          67.0788   92.9212   16.0586 C.2     1  UNL1       -0.0034
     19 C          66.1270   91.8330   15.6587 C.2     1  UNL1       -0.0071
     20 C          63.6045   84.6112   14.6678 C.3     1  UNL1        0.0556
     21 C          63.3168   83.2487   14.1103 C.ar    1  UNL1       -0.0198
     22 C          64.1842   82.6841   13.0245 C.ar    1  UNL1       -0.0011
     23 C          63.8965   81.3216   12.4670 C.ar    1  UNL1        0.0363
     24 C          62.7414   80.5237   12.9952 C.ar    1  UNL1        0.1337
     25 O          62.4537   79.1612   12.4376 O.3     1  UNL1       -0.5055
     26 C          61.8739   81.0883   14.0810 C.ar    1  UNL1        0.0363
     27 C          62.1616   82.4507   14.6385 C.ar    1  UNL1       -0.0011
     28 H          62.9956   78.8086   11.7594 H       1  UNL1        0.2922
     29 C          60.7552   87.0041   11.0409 C.3     1  UNL1        0.1217
     30 C          60.3663   88.2595   10.3178 C.ar    1  UNL1        0.0135
     31 C          59.9871   89.4855   11.0945 C.ar    1  UNL1       -0.0012
     32 C          59.5982   90.7409   10.3715 C.ar    1  UNL1       -0.0002
     33 C          59.5884   90.7703    8.8719 C.ar    1  UNL1        0.0015
     34 C          59.9675   89.5443    8.0952 C.ar    1  UNL1        0.0170
     35 C          60.0501   89.2752    6.6219 C.ar    1  UNL1        0.0186
     36 C          60.4901   87.8535    6.4343 C.ar    1  UNL1        0.0759
     37 N          60.6794   87.2440    7.7917 N.ar    1  UNL1       -0.3242
     38 C          61.1152   85.8365    8.0732 C.3     1  UNL1        0.1305
     39 C          60.3564   88.2889    8.8182 C.ar    1  UNL1        0.0575
     40 C          59.7461   90.2557    5.5281 C.ar    1  UNL1        0.0016
     41 C          58.3323   90.6942    5.2856 C.ar    1  UNL1        0.0013
     42 C          58.0284   91.6746    4.1918 C.ar    1  UNL1        0.0147
     43 C          59.1382   92.2166    3.3406 C.ar    1  UNL1        0.0505
     44 C          60.5520   91.7781    3.5831 C.ar    1  UNL1        0.0147
     45 C          60.8559   90.7976    4.6768 C.ar    1  UNL1        0.0013
     46 N          58.8342   93.1970    2.2469 N.am    1  UNL1       -0.2804
     47 C          59.3115   92.9337    0.8494 C.2     1  UNL1        0.2495
     48 O          60.0929   91.6899    0.5457 O.2     1  UNL1       -0.2698
     49 H          58.3213   94.0134    2.4462 H       1  UNL1        0.1552
     50 C          59.0075   93.9142   -0.2442 C.ar    1  UNL1        0.0538
     51 C          59.0450   93.4741   -1.6778 C.ar    1  UNL1        0.0058
     52 C          58.7409   94.4546   -2.7715 C.ar    1  UNL1        0.0142
     53 C          58.3993   95.8751   -2.4317 C.ar    1  UNL1        0.0415
     54 N          58.0953   96.8556   -3.5254 N.pl3   1  UNL1       -0.3570
     55 C          58.3618   96.3152   -0.9982 C.ar    1  UNL1        0.0142
     56 C          58.6659   95.3347    0.0955 C.ar    1  UNL1        0.0058
     57 H          58.1199   96.5668   -4.4662 H       1  UNL1        0.1424
     58 H          57.8711   97.7879   -3.3023 H       1  UNL1        0.1424
     59 C          64.7942   93.2520   11.9900 C.3     1  UNL1        0.1177
     60 C          65.7957   93.7667   10.9991 C.ar    1  UNL1       -0.0025
     61 C          66.7429   92.8169   10.3278 C.ar    1  UNL1       -0.0026
     62 C          67.7445   93.3316    9.3369 C.ar    1  UNL1       -0.0003
     63 C          67.7989   94.7961    9.0173 C.ar    1  UNL1       -0.0000
     64 C          66.8517   95.7460    9.6887 C.ar    1  UNL1       -0.0003
     65 C          65.8502   95.2313   10.6796 C.ar    1  UNL1       -0.0026
@<TRIPOS>BOND
     1    18    19    2
     2    19    17    1
     3    17     1    1
     4     1     2    1
     5     2     3    1
     6     3     4    2
     7     3     5   am
     8     5     6    1
     9     6    20    1
    10    20    21    1
    11    21    22   ar
    12    22    23   ar
    13    23    24   ar
    14    24    25    1
    15    24    26   ar
    16    26    27   ar
    17     6     7    1
    18     7     8    2
    19     7     9   am
    20     9    29    1
    21    29    30    1
    22    30    31   ar
    23    31    32   ar
    24    32    33   ar
    25    33    34   ar
    26    34    35   ar
    27    35    40    1
    28    40    41   ar
    29    41    42   ar
    30    42    43   ar
    31    43    46    1
    32    46    47   am
    33    47    48    2
    34    47    50    1
    35    50    51   ar
    36    51    52   ar
    37    52    53   ar
    38    53    54    1
    39    53    55   ar
    40    55    56   ar
    41    43    44   ar
    42    44    45   ar
    43    35    36   ar
    44    36    37   ar
    45    37    38    1
    46    37    39   ar
    47     9    10    1
    48    11    10    1
    49    11    12    1
    50    12    13   am
    51    13    14    2
    52    13    15   am
    53    15    59    1
    54    59    60    1
    55    60    61   ar
    56    61    62   ar
    57    62    63   ar
    58    63    64   ar
    59    64    65   ar
    60    12     1    1
    61    65    60   ar
    62    11     5    1
    63    27    21   ar
    64    39    30   ar
    65    39    34   ar
    66    45    40   ar
    67    56    50   ar
    68    25    28    1
    69    46    49    1
    70    54    57    1
    71    54    58    1
    72    15    16    1
@<TRIPOS>MOLECULE
*****
 65 72 0 0 0
SMALL
GASTEIGER

@<TRIPOS>ATOM
      1 N          65.6030   89.9389   13.8323 N.3     1  UNL1       -0.1862
      2 C          66.0325   88.8077   14.7187 C.3     1  UNL1        0.1775
      3 C          65.2544   87.5253   14.7284 C.2     1  UNL1        0.2452
      4 O          65.6840   86.3940   15.6149 O.2     1  UNL1       -0.2732
      5 N          64.0468   87.3742   13.8517 N.am    1  UNL1       -0.2541
      6 C          63.2687   86.0918   13.8614 C.3     1  UNL1        0.1577
      7 C          62.0610   85.9407   12.9847 C.2     1  UNL1        0.2445
      8 O          61.2829   84.6583   12.9944 O.2     1  UNL1       -0.2731
      9 N          61.6314   87.0720   12.0982 N.am    1  UNL1       -0.2705
     10 C          62.4095   88.3543   12.0885 C.3     1  UNL1        0.1359
     11 C          63.6172   88.5054   12.9653 C.3     1  UNL1        0.1908
     12 N          64.3953   89.7878   12.9556 N.am    1  UNL1       -0.1863
     13 C          63.9657   90.9190   12.0692 C.2     1  UNL1        0.3191
     14 O          62.7581   90.7679   11.1924 O.2     1  UNL1       -0.2512
     15 N          64.7438   92.2014   12.0595 N.am    1  UNL1       -0.2836
     16 H          65.5365   92.3006   12.6349 H       1  UNL1        0.1513
     17 C          66.3811   91.2213   13.8226 C.3     1  UNL1        0.1188
     18 C          66.8358   92.6858   15.9198 C.2     1  UNL1       -0.0034
     19 C          67.2481   91.5813   14.9925 C.2     1  UNL1       -0.0071
     20 C          63.6982   84.9606   14.7478 C.3     1  UNL1        0.0556
     21 C          63.4166   83.5434   14.3448 C.ar    1  UNL1       -0.0198
     22 C          62.2628   82.8051   14.9560 C.ar    1  UNL1       -0.0011
     23 C          61.9812   81.3879   14.5531 C.ar    1  UNL1        0.0363
     24 C          62.8534   80.7091   13.5390 C.ar    1  UNL1        0.1337
     25 O          62.5718   79.2920   13.1360 O.3     1  UNL1       -0.5055
     26 C          64.0072   81.4475   12.9277 C.ar    1  UNL1        0.0363
     27 C          64.2889   82.8646   13.3307 C.ar    1  UNL1       -0.0011
     28 H          61.8510   78.8307   13.5178 H       1  UNL1        0.2922
     29 C          60.4237   86.9208   11.2215 C.3     1  UNL1        0.1217
     30 C          60.5414   87.1279    9.7405 C.ar    1  UNL1        0.0135
     31 C          61.0221   86.0106    8.8628 C.ar    1  UNL1       -0.0012
     32 C          61.1398   86.2176    7.3819 C.ar    1  UNL1       -0.0002
     33 C          60.7767   87.5421    6.7786 C.ar    1  UNL1        0.0015
     34 C          60.2960   88.6594    7.6563 C.ar    1  UNL1        0.0170
     35 C          59.8690   90.0642    7.3493 C.ar    1  UNL1        0.0186
     36 C          59.4874   90.7253    8.6406 C.ar    1  UNL1        0.0759
     37 N          59.6786   89.7292    9.7455 N.ar    1  UNL1       -0.3242
     38 C          59.4161   89.9679   11.2029 C.3     1  UNL1        0.1305
     39 C          60.1783   88.4524    9.1372 C.ar    1  UNL1        0.0575
     40 C          59.8303   90.6968    5.9897 C.ar    1  UNL1        0.0016
     41 C          61.0968   90.8623    5.2032 C.ar    1  UNL1        0.0013
     42 C          61.0581   91.4948    3.8437 C.ar    1  UNL1        0.0147
     43 C          59.7530   91.9620    3.2707 C.ar    1  UNL1        0.0505
     44 C          58.4865   91.7966    4.0572 C.ar    1  UNL1        0.0147
     45 C          58.5252   91.1640    5.4167 C.ar    1  UNL1        0.0013
     46 N          59.7144   92.5946    1.9111 N.am    1  UNL1       -0.2804
     47 C          59.8938   94.0770    1.7682 C.2     1  UNL1        0.2495
     48 O          60.1119   94.9267    2.9849 O.2     1  UNL1       -0.2698
     49 H          59.5712   92.0368    1.1126 H       1  UNL1        0.1552
     50 C          59.8552   94.7094    0.4086 C.ar    1  UNL1        0.0538
     51 C          58.6003   94.6496   -0.4109 C.ar    1  UNL1        0.0058
     52 C          58.5616   95.2821   -1.7705 C.ar    1  UNL1        0.0142
     53 C          59.7778   95.9743   -2.3105 C.ar    1  UNL1        0.0415
     54 N          59.7391   96.6068   -3.6701 N.pl3   1  UNL1       -0.3570
     55 C          61.0327   96.0341   -1.4910 C.ar    1  UNL1        0.0142
     56 C          61.0714   95.4017   -0.1314 C.ar    1  UNL1        0.0058
     57 H          58.9155   96.5676   -4.2080 H       1  UNL1        0.1424
     58 H          60.5374   97.0612   -4.0245 H       1  UNL1        0.1424
     59 C          64.3143   93.3326   11.1731 C.3     1  UNL1        0.1177
     60 C          65.3439   94.1779   10.4837 C.ar    1  UNL1       -0.0025
     61 C          65.1646   95.6652   10.4075 C.ar    1  UNL1       -0.0026
     62 C          66.1943   96.5104    9.7181 C.ar    1  UNL1       -0.0003
     63 C          67.4033   95.8684    9.1048 C.ar    1  UNL1       -0.0000
     64 C          67.5827   94.3811    9.1810 C.ar    1  UNL1       -0.0003
     65 C          66.5530   93.5358    9.8704 C.ar    1  UNL1       -0.0026
@<TRIPOS>BOND
     1    18    19    2
     2    19    17    1
     3    17     1    1
     4     1     2    1
     5     2     3    1
     6     3     4    2
     7     3     5   am
     8     5     6    1
     9     6    20    1
    10    20    21    1
    11    21    22   ar
    12    22    23   ar
    13    23    24   ar
    14    24    25    1
    15    24    26   ar
    16    26    27   ar
    17     6     7    1
    18     7     8    2
    19     7     9   am
    20     9    29    1
    21    29    30    1
    22    30    31   ar
    23    31    32   ar
    24    32    33   ar
    25    33    34   ar
    26    34    35   ar
    27    35    40    1
    28    40    41   ar
    29    41    42   ar
    30    42    43   ar
    31    43    46    1
    32    46    47   am
    33    47    48    2
    34    47    50    1
    35    50    51   ar
    36    51    52   ar
    37    52    53   ar
    38    53    54    1
    39    53    55   ar
    40    55    56   ar
    41    43    44   ar
    42    44    45   ar
    43    35    36   ar
    44    36    37   ar
    45    37    38    1
    46    37    39   ar
    47     9    10    1
    48    11    10    1
    49    11    12    1
    50    12    13   am
    51    13    14    2
    52    13    15   am
    53    15    59    1
    54    59    60    1
    55    60    61   ar
    56    61    62   ar
    57    62    63   ar
    58    63    64   ar
    59    64    65   ar
    60    12     1    1
    61    65    60   ar
    62    11     5    1
    63    27    21   ar
    64    39    30   ar
    65    39    34   ar
    66    45    40   ar
    67    56    50   ar
    68    25    28    1
    69    46    49    1
    70    54    57    1
    71    54    58    1
    72    15    16    1
