@<TRIPOS>MOLECULE
*****
 41 46 0 0 0
SMALL
GASTEIGER

@<TRIPOS>ATOM
      1 C          64.4726   89.8093   14.6964 C.ar    1  UNL1        0.1669
      2 N          64.4990   88.4762   14.0093 N.ar    1  UNL1       -0.2221
      3 C          63.8397   87.4763   14.9123 C.ar    1  UNL1        0.1307
      4 C          63.5783   86.0069   14.7615 C.ar    1  UNL1        0.0777
      5 C          62.8831   85.2527   15.8560 C.ar    1  UNL1        0.0893
      6 CL         62.6217   83.7833   15.7052 Cl      1  UNL1       -0.0794
      7 C          62.4493   85.9677   17.1011 C.ar    1  UNL1        0.0863
      8 N          62.7107   87.4371   17.2519 N.ar    1  UNL1       -0.3354
      9 C          63.4059   88.1913   16.1574 C.ar    1  UNL1        0.1613
     10 N          63.7971   89.6333   16.0241 N.ar    1  UNL1       -0.2080
     11 H          62.4259   87.9064   18.0691 H       1  UNL1        0.1675
     12 C          64.6532   91.5430   12.7698 C.ar    1  UNL1        0.1413
     13 C          65.2055   92.8268   12.2250 C.ar    1  UNL1        0.0341
     14 C          66.1295   93.6608   13.0620 C.ar    1  UNL1       -0.0031
     15 C          66.5013   93.2110   14.4439 C.ar    1  UNL1       -0.0026
     16 C          65.9489   91.9271   14.9886 C.ar    1  UNL1        0.0058
     17 C          65.0249   91.0931   14.1516 C.ar    1  UNL1        0.0697
     18 C          63.3367   91.1718   10.5609 C.3     1  UNL1        0.2525
     19 O          63.7292   90.7090   11.9327 O.3     1  UNL1       -0.4713
     20 C          66.6818   94.9446   12.5172 C.3     1  UNL1        0.0993
     21 N          66.4259   95.3248   11.0890 N.3     1  UNL1       -0.2665
     22 C          67.1936   94.6581    9.9862 C.3     1  UNL1        0.0899
     23 C          66.9376   95.0384    8.5580 C.3     1  UNL1        0.0897
     24 N          65.9139   96.0853    8.2324 N.3     1  UNL1       -0.2691
     25 C          65.6580   96.4655    6.8042 C.3     1  UNL1        0.0897
     26 C          65.1462   96.7520    9.3352 C.3     1  UNL1        0.0897
     27 C          65.4022   96.3717   10.7635 C.3     1  UNL1        0.0899
     28 N          64.0121   85.2918   13.5163 N.pl3   1  UNL1       -0.3313
     29 H          64.8344   84.7504   13.5207 H       1  UNL1        0.1469
     30 C          63.1931   85.4015   12.2645 C.3     1  UNL1        0.0819
     31 C          62.9478   84.3036   11.2724 C.3     1  UNL1        0.0983
     32 C          62.0787   84.8519   10.1796 C.3     1  UNL1        0.0323
     33 C          61.3613   86.0788    9.7001 C.2     1  UNL1       -0.0304
     34 C          61.6066   87.1768   10.6922 C.2     1  UNL1       -0.0294
     35 C          62.4757   86.6284   11.7849 C.3     1  UNL1        0.0404
     36 C          62.7675   85.1916   11.4682 C.3     1  UNL1        0.0109
     37 C          63.4784   82.9031   11.3579 C.2     1  UNL1        0.2208
     38 N          62.7288   81.8634   12.1371 N.am    1  UNL1       -0.3288
     39 O          64.7585   82.5424   10.6642 O.2     1  UNL1       -0.2753
     40 H          61.8887   82.1002   12.5924 H       1  UNL1        0.1449
     41 H          63.0771   80.9443   12.1933 H       1  UNL1        0.1449
@<TRIPOS>BOND
     1    18    19    1
     2    19    12    1
     3    12    13   ar
     4    13    14   ar
     5    14    20    1
     6    20    21    1
     7    21    22    1
     8    22    23    1
     9    23    24    1
    10    24    25    1
    11    24    26    1
    12    26    27    1
    13    14    15   ar
    14    15    16   ar
    15    16    17   ar
    16    17     1    1
    17     1     2   ar
    18     2     3   ar
    19     3     4   ar
    20     4    28    1
    21    30    28    1
    22    30    31    1
    23    31    37    1
    24    37    38   am
    25    37    39    2
    26    31    32    1
    27    32    33    1
    28    33    34    2
    29    35    34    1
    30    35    36    1
    31     4     5   ar
    32     5     6    1
    33     5     7   ar
    34     7     8   ar
    35     8     9   ar
    36     9    10   ar
    37    17    12   ar
    38    10     1   ar
    39    27    21    1
    40     9     3    1
    41    35    30    1
    42    36    32    1
    43    28    29    1
    44    38    40    1
    45    38    41    1
    46     8    11    1
@<TRIPOS>MOLECULE
*****
 41 46 0 0 0
SMALL
GASTEIGER

@<TRIPOS>ATOM
      1 C          64.5225   90.0655   14.7543 C.ar    1  UNL1        0.1669
      2 N          64.7958   88.6742   14.2648 N.ar    1  UNL1       -0.2221
      3 C          64.0431   87.7180   15.1418 C.ar    1  UNL1        0.1307
      4 C          63.9348   86.2220   15.1344 C.ar    1  UNL1        0.0777
      5 C          63.0879   85.5263   16.1586 C.ar    1  UNL1        0.0893
      6 CL         62.9795   84.0302   16.1512 Cl      1  UNL1       -0.0794
      7 C          62.3494   86.3266   17.1900 C.ar    1  UNL1        0.0863
      8 N          62.4577   87.8227   17.1974 N.ar    1  UNL1       -0.3354
      9 C          63.3045   88.5184   16.1733 C.ar    1  UNL1        0.1613
     10 N          63.6008   89.9692   15.9338 N.ar    1  UNL1       -0.2080
     11 H          61.9729   88.3480   17.8744 H       1  UNL1        0.1675
     12 C          64.7343   91.7139   12.7573 C.ar    1  UNL1        0.1413
     13 C          65.2858   92.9794   12.1704 C.ar    1  UNL1        0.0341
     14 C          66.1770   93.8618   12.9934 C.ar    1  UNL1       -0.0031
     15 C          66.5166   93.4788   14.4033 C.ar    1  UNL1       -0.0026
     16 C          65.9651   92.2133   14.9902 C.ar    1  UNL1        0.0058
     17 C          65.0739   91.3309   14.1673 C.ar    1  UNL1        0.0697
     18 C          63.4981   91.2180   10.5267 C.3     1  UNL1        0.2525
     19 O          63.8432   90.8316   11.9343 O.3     1  UNL1       -0.4713
     20 C          66.7284   95.1273   12.4064 C.3     1  UNL1        0.0993
     21 N          66.3995   95.5035   10.9921 N.3     1  UNL1       -0.2665
     22 C          65.2940   96.4782   10.7130 C.3     1  UNL1        0.0899
     23 C          64.9651   96.8544    9.2987 C.3     1  UNL1        0.0897
     24 N          65.7417   96.2559    8.1634 N.3     1  UNL1       -0.2691
     25 C          65.4127   96.6322    6.7492 C.3     1  UNL1        0.0897
     26 C          66.8472   95.2813    8.4425 C.3     1  UNL1        0.0897
     27 C          67.1761   94.9050    9.8569 C.3     1  UNL1        0.0899
     28 N          64.6733   85.4216   14.1029 N.pl3   1  UNL1       -0.3313
     29 H          65.6231   85.6077   13.9227 H       1  UNL1        0.1469
     30 C          63.9647   84.3376   13.3460 C.3     1  UNL1        0.0819
     31 C          62.9497   84.5393   12.2602 C.3     1  UNL1        0.0983
     32 C          62.5044   83.1880   11.7852 C.3     1  UNL1        0.0323
     33 C          62.6864   81.7121   11.9812 C.2     1  UNL1       -0.0304
     34 C          63.7014   81.5104   13.0670 C.2     1  UNL1       -0.0294
     35 C          64.1467   82.8617   13.5421 C.3     1  UNL1        0.0404
     36 C          63.4070   83.8985   12.7499 C.3     1  UNL1        0.0109
     37 C          62.4651   85.8604   11.7406 C.2     1  UNL1        0.2208
     38 N          61.2952   85.9142   10.8033 N.am    1  UNL1       -0.3288
     39 O          63.1503   87.1277   12.1584 O.2     1  UNL1       -0.2753
     40 H          60.8455   85.0825   10.5292 H       1  UNL1        0.1449
     41 H          60.9772   86.7813   10.4623 H       1  UNL1        0.1449
@<TRIPOS>BOND
     1    18    19    1
     2    19    12    1
     3    12    13   ar
     4    13    14   ar
     5    14    20    1
     6    20    21    1
     7    21    22    1
     8    22    23    1
     9    23    24    1
    10    24    25    1
    11    24    26    1
    12    26    27    1
    13    14    15   ar
    14    15    16   ar
    15    16    17   ar
    16    17     1    1
    17     1     2   ar
    18     2     3   ar
    19     3     4   ar
    20     4    28    1
    21    30    28    1
    22    30    31    1
    23    31    37    1
    24    37    38   am
    25    37    39    2
    26    31    32    1
    27    32    33    1
    28    33    34    2
    29    35    34    1
    30    35    36    1
    31     4     5   ar
    32     5     6    1
    33     5     7   ar
    34     7     8   ar
    35     8     9   ar
    36     9    10   ar
    37    17    12   ar
    38    10     1   ar
    39    27    21    1
    40     9     3    1
    41    35    30    1
    42    36    32    1
    43    28    29    1
    44    38    40    1
    45    38    41    1
    46     8    11    1
@<TRIPOS>MOLECULE
*****
 41 46 0 0 0
SMALL
GASTEIGER

@<TRIPOS>ATOM
      1 C          64.1909   88.4193   14.1592 C.ar    1  UNL1        0.1669
      2 N          63.8202   87.4219   13.1020 N.ar    1  UNL1       -0.2221
      3 C          63.3532   86.1721   13.7873 C.ar    1  UNL1        0.1307
      4 C          62.8638   84.8582   13.2542 C.ar    1  UNL1        0.0777
      5 C          62.4565   83.7692   14.2021 C.ar    1  UNL1        0.0893
      6 CL         61.9671   82.4552   13.6690 Cl      1  UNL1       -0.0794
      7 C          62.5385   83.9941   15.6827 C.ar    1  UNL1        0.0863
      8 N          63.0279   85.3080   16.2158 N.ar    1  UNL1       -0.3354
      9 C          63.4352   86.3970   15.2681 C.ar    1  UNL1        0.1613
     10 N          63.9530   87.7859   15.4980 N.ar    1  UNL1       -0.2080
     11 H          63.0817   85.4556   17.1877 H       1  UNL1        0.1675
     12 C          64.1259   90.6455   12.8213 C.ar    1  UNL1        0.1413
     13 C          64.6437   92.0329   12.5820 C.ar    1  UNL1        0.0341
     14 C          65.7441   92.5813   13.4411 C.ar    1  UNL1       -0.0031
     15 C          66.3269   91.7425   14.5396 C.ar    1  UNL1       -0.0026
     16 C          65.8091   90.3552   14.7789 C.ar    1  UNL1        0.0058
     17 C          64.7086   89.8067   13.9198 C.ar    1  UNL1        0.0697
     18 C          62.7532   90.7005   10.6162 C.3     1  UNL1        0.2525
     19 O          63.0254   90.0971   11.9622 O.3     1  UNL1       -0.4713
     20 C          66.2619   93.9687   13.2017 C.3     1  UNL1        0.0993
     21 N          66.3941   94.4884   11.8009 N.3     1  UNL1       -0.2665
     22 C          66.0669   95.9206   11.4982 C.3     1  UNL1        0.0899
     23 C          66.1992   96.4402   10.0973 C.3     1  UNL1        0.0897
     24 N          66.6588   95.5277    8.9991 N.3     1  UNL1       -0.2691
     25 C          66.7910   96.0474    7.5982 C.3     1  UNL1        0.0897
     26 C          66.9860   94.0955    9.3017 C.3     1  UNL1        0.0897
     27 C          66.8537   93.5758   10.7027 C.3     1  UNL1        0.0899
     28 N          62.7817   84.6332   11.7735 N.pl3   1  UNL1       -0.3313
     29 H          63.1965   83.8351   11.3731 H       1  UNL1        0.1469
     30 C          62.0677   85.6241   10.9027 C.3     1  UNL1        0.0819
     31 C          62.1467   85.7011    9.4068 C.3     1  UNL1        0.0983
     32 C          61.2771   86.8365    8.9545 C.3     1  UNL1        0.0323
     33 C          60.3587   87.9244    9.4268 C.2     1  UNL1       -0.0304
     34 C          60.2797   87.8474   10.9227 C.2     1  UNL1       -0.0294
     35 C          61.1493   86.7119   11.3750 C.3     1  UNL1        0.0404
     36 C          61.7657   86.0871   10.1586 C.3     1  UNL1        0.0109
     37 C          62.9537   84.8006    8.5190 C.2     1  UNL1        0.2208
     38 N          62.7227   84.8056    7.0369 N.am    1  UNL1       -0.3288
     39 O          63.9915   83.8953    9.1133 O.2     1  UNL1       -0.2753
     40 H          62.0415   85.3998    6.6468 H       1  UNL1        0.1449
     41 H          63.2523   84.2147    6.4542 H       1  UNL1        0.1449
@<TRIPOS>BOND
     1    18    19    1
     2    19    12    1
     3    12    13   ar
     4    13    14   ar
     5    14    20    1
     6    20    21    1
     7    21    22    1
     8    22    23    1
     9    23    24    1
    10    24    25    1
    11    24    26    1
    12    26    27    1
    13    14    15   ar
    14    15    16   ar
    15    16    17   ar
    16    17     1    1
    17     1     2   ar
    18     2     3   ar
    19     3     4   ar
    20     4    28    1
    21    30    28    1
    22    30    31    1
    23    31    37    1
    24    37    38   am
    25    37    39    2
    26    31    32    1
    27    32    33    1
    28    33    34    2
    29    35    34    1
    30    35    36    1
    31     4     5   ar
    32     5     6    1
    33     5     7   ar
    34     7     8   ar
    35     8     9   ar
    36     9    10   ar
    37    17    12   ar
    38    10     1   ar
    39    27    21    1
    40     9     3    1
    41    35    30    1
    42    36    32    1
    43    28    29    1
    44    38    40    1
    45    38    41    1
    46     8    11    1
@<TRIPOS>MOLECULE
*****
 41 46 0 0 0
SMALL
GASTEIGER

@<TRIPOS>ATOM
      1 C          64.5895   88.4411   14.1244 C.ar    1  UNL1        0.1669
      2 N          63.5348   87.6921   13.3650 N.ar    1  UNL1       -0.2221
      3 C          63.4719   86.2971   13.9128 C.ar    1  UNL1        0.1307
      4 C          62.6208   85.1153   13.5537 C.ar    1  UNL1        0.0777
      5 C          62.7857   83.8202   14.2925 C.ar    1  UNL1        0.0893
      6 CL         61.9346   82.6383   13.9334 Cl      1  UNL1       -0.0794
      7 C          63.8014   83.7071   15.3903 C.ar    1  UNL1        0.0863
      8 N          64.6525   84.8889   15.7494 N.ar    1  UNL1       -0.3354
      9 C          64.4877   86.1839   15.0107 C.ar    1  UNL1        0.1613
     10 N          65.1785   87.5090   15.1414 N.ar    1  UNL1       -0.2080
     11 H          65.3192   84.8146   16.4700 H       1  UNL1        0.1675
     12 C          64.2852   90.6923   12.8636 C.ar    1  UNL1        0.1413
     13 C          64.6815   92.1223   12.6445 C.ar    1  UNL1        0.0341
     14 C          65.7783   92.7312   13.4669 C.ar    1  UNL1       -0.0031
     15 C          66.4788   91.9100   14.5084 C.ar    1  UNL1       -0.0026
     16 C          66.0825   90.4799   14.7276 C.ar    1  UNL1        0.0058
     17 C          64.9857   89.8711   13.9052 C.ar    1  UNL1        0.0697
     18 C          62.9381   90.5721   10.6453 C.3     1  UNL1        0.2525
     19 O          63.1884   90.0835   12.0412 O.3     1  UNL1       -0.4713
     20 C          66.1745   94.1612   13.2477 C.3     1  UNL1        0.0993
     21 N          66.3753   94.6785   11.8541 N.3     1  UNL1       -0.2665
     22 C          66.8421   93.7526   10.7703 C.3     1  UNL1        0.0899
     23 C          67.0429   94.2701    9.3768 C.3     1  UNL1        0.0897
     24 N          66.7768   95.7135    9.0670 N.3     1  UNL1       -0.2691
     25 C          66.9776   96.2309    7.6735 C.3     1  UNL1        0.0897
     26 C          66.3100   96.6394   10.1509 C.3     1  UNL1        0.0897
     27 C          66.1092   96.1219   11.5445 C.3     1  UNL1        0.0899
     28 N          61.6050   85.2284   12.4558 N.pl3   1  UNL1       -0.3313
     29 H          60.6444   85.2229   12.6715 H       1  UNL1        0.1469
     30 C          62.0526   85.3498   11.0294 C.3     1  UNL1        0.0819
     31 C          61.6478   86.4267   10.0669 C.3     1  UNL1        0.0983
     32 C          62.3287   86.1581    8.7576 C.3     1  UNL1        0.0323
     33 C          63.2598   85.2240    8.0432 C.2     1  UNL1       -0.0304
     34 C          63.6646   84.1471    9.0056 C.2     1  UNL1       -0.0294
     35 C          62.9837   84.4157   10.3149 C.3     1  UNL1        0.0404
     36 C          62.1581   85.6585   10.1617 C.3     1  UNL1        0.0109
     37 C          60.7242   87.5713   10.3619 C.2     1  UNL1        0.2208
     38 N          60.0416   88.2931    9.2381 N.am    1  UNL1       -0.3288
     39 O          60.4832   87.9940   11.7808 O.2     1  UNL1       -0.2753
     40 H          60.1998   88.0157    8.3068 H       1  UNL1        0.1449
     41 H          59.4355   89.0443    9.4317 H       1  UNL1        0.1449
@<TRIPOS>BOND
     1    18    19    1
     2    19    12    1
     3    12    13   ar
     4    13    14   ar
     5    14    20    1
     6    20    21    1
     7    21    22    1
     8    22    23    1
     9    23    24    1
    10    24    25    1
    11    24    26    1
    12    26    27    1
    13    14    15   ar
    14    15    16   ar
    15    16    17   ar
    16    17     1    1
    17     1     2   ar
    18     2     3   ar
    19     3     4   ar
    20     4    28    1
    21    30    28    1
    22    30    31    1
    23    31    37    1
    24    37    38   am
    25    37    39    2
    26    31    32    1
    27    32    33    1
    28    33    34    2
    29    35    34    1
    30    35    36    1
    31     4     5   ar
    32     5     6    1
    33     5     7   ar
    34     7     8   ar
    35     8     9   ar
    36     9    10   ar
    37    17    12   ar
    38    10     1   ar
    39    27    21    1
    40     9     3    1
    41    35    30    1
    42    36    32    1
    43    28    29    1
    44    38    40    1
    45    38    41    1
    46     8    11    1
@<TRIPOS>MOLECULE
*****
 41 46 0 0 0
SMALL
GASTEIGER

@<TRIPOS>ATOM
      1 C          61.8657   87.4961   11.1980 C.ar    1  UNL1        0.1669
      2 N          61.8481   86.1420   11.8429 N.ar    1  UNL1       -0.2221
      3 C          62.8130   86.1630   12.9913 C.ar    1  UNL1        0.1307
      4 C          63.2118   85.1138   13.9863 C.ar    1  UNL1        0.0777
      5 C          64.2246   85.4318   15.0461 C.ar    1  UNL1        0.0893
      6 CL         64.6235   84.3826   16.0413 Cl      1  UNL1       -0.0794
      7 C          64.8385   86.7988   15.1109 C.ar    1  UNL1        0.0863
      8 N          64.4397   87.8480   14.1158 N.ar    1  UNL1       -0.3354
      9 C          63.4269   87.5301   13.0560 C.ar    1  UNL1        0.1613
     10 N          62.8415   88.3540   11.9477 N.ar    1  UNL1       -0.2080
     11 H          64.8426   88.7452   14.1583 H       1  UNL1        0.1675
     12 C          60.8947   89.3749    9.6889 C.ar    1  UNL1        0.1413
     13 C          60.0796   89.7970    8.5024 C.ar    1  UNL1        0.0341
     14 C          59.4207   88.7626    7.6388 C.ar    1  UNL1       -0.0031
     15 C          59.5767   87.3061    7.9615 C.ar    1  UNL1       -0.0026
     16 C          60.3918   86.8840    9.1480 C.ar    1  UNL1        0.0058
     17 C          61.0507   87.9183   10.0116 C.ar    1  UNL1        0.0697
     18 C          62.7781   91.1247   10.0639 C.3     1  UNL1        0.2525
     19 O          61.5536   90.4092   10.5525 O.3     1  UNL1       -0.4713
     20 C          58.6057   89.1848    6.4524 C.3     1  UNL1        0.0993
     21 N          59.0928   90.2900    5.5629 N.3     1  UNL1       -0.2665
     22 C          58.1213   91.2881    5.0062 C.3     1  UNL1        0.0899
     23 C          58.6086   92.3933    4.1167 C.3     1  UNL1        0.0897
     24 N          60.0673   92.5003    3.7838 N.3     1  UNL1       -0.2691
     25 C          60.5544   93.6055    2.8943 C.3     1  UNL1        0.0897
     26 C          61.0388   91.5022    4.3405 C.3     1  UNL1        0.0897
     27 C          60.5515   90.3970    5.2301 C.3     1  UNL1        0.0899
     28 N          62.5979   83.7467   13.9216 N.pl3   1  UNL1       -0.3313
     29 H          62.0060   83.4381   14.6453 H       1  UNL1        0.1469
     30 C          62.8858   82.8497   12.7544 C.3     1  UNL1        0.0819
     31 C          62.5884   81.3816   12.6763 C.3     1  UNL1        0.0983
     32 C          63.0405   80.8878   11.3339 C.3     1  UNL1        0.0323
     33 C          63.6764   81.3015   10.0399 C.2     1  UNL1       -0.0304
     34 C          63.9738   82.7696   10.1180 C.2     1  UNL1       -0.0294
     35 C          63.5217   83.2633   11.4603 C.3     1  UNL1        0.0404
     36 C          62.9449   82.1004   12.2119 C.3     1  UNL1        0.0109
     37 C          61.9509   80.5527   13.7517 C.2     1  UNL1        0.2208
     38 N          60.4954   80.7274   14.0696 N.am    1  UNL1       -0.3288
     39 O          62.7688   79.5490   14.5091 O.2     1  UNL1       -0.2753
     40 H          59.9586   81.3861   13.5725 H       1  UNL1        0.1449
     41 H          60.0770   80.1833   14.7755 H       1  UNL1        0.1449
@<TRIPOS>BOND
     1    18    19    1
     2    19    12    1
     3    12    13   ar
     4    13    14   ar
     5    14    20    1
     6    20    21    1
     7    21    22    1
     8    22    23    1
     9    23    24    1
    10    24    25    1
    11    24    26    1
    12    26    27    1
    13    14    15   ar
    14    15    16   ar
    15    16    17   ar
    16    17     1    1
    17     1     2   ar
    18     2     3   ar
    19     3     4   ar
    20     4    28    1
    21    30    28    1
    22    30    31    1
    23    31    37    1
    24    37    38   am
    25    37    39    2
    26    31    32    1
    27    32    33    1
    28    33    34    2
    29    35    34    1
    30    35    36    1
    31     4     5   ar
    32     5     6    1
    33     5     7   ar
    34     7     8   ar
    35     8     9   ar
    36     9    10   ar
    37    17    12   ar
    38    10     1   ar
    39    27    21    1
    40     9     3    1
    41    35    30    1
    42    36    32    1
    43    28    29    1
    44    38    40    1
    45    38    41    1
    46     8    11    1
@<TRIPOS>MOLECULE
*****
 41 46 0 0 0
SMALL
GASTEIGER

@<TRIPOS>ATOM
      1 C          60.8155   93.1471    2.3718 C.ar    1  UNL1        0.1669
      2 N          60.0298   93.8004    1.2737 N.ar    1  UNL1       -0.2221
      3 C          60.9906   94.5498    0.3989 C.ar    1  UNL1        0.1307
      4 C          60.7876   95.3807   -0.8333 C.ar    1  UNL1        0.0777
      5 C          61.9641   96.0215   -1.5080 C.ar    1  UNL1        0.0893
      6 CL         61.7611   96.8525   -2.7403 Cl      1  UNL1       -0.0794
      7 C          63.3436   95.8313   -0.9506 C.ar    1  UNL1        0.0863
      8 N          63.5467   95.0003    0.2816 N.ar    1  UNL1       -0.3354
      9 C          62.3702   94.3596    0.9563 C.ar    1  UNL1        0.1613
     10 N          62.2619   93.4927    2.1757 N.ar    1  UNL1       -0.2080
     11 H          64.4521   94.8755    0.6474 H       1  UNL1        0.1675
     12 C          61.1679   91.4522    4.3091 C.ar    1  UNL1        0.1413
     13 C          60.6058   90.6025    5.4100 C.ar    1  UNL1        0.0341
     14 C          59.1294   90.5980    5.6747 C.ar    1  UNL1       -0.0031
     15 C          58.2150   91.4433    4.8385 C.ar    1  UNL1       -0.0026
     16 C          58.7771   92.2930    3.7375 C.ar    1  UNL1        0.0058
     17 C          60.2535   92.2974    3.4728 C.ar    1  UNL1        0.0697
     18 C          63.2675   90.3465    3.2511 C.3     1  UNL1        0.2525
     19 O          62.6444   91.4566    4.0444 O.3     1  UNL1       -0.4713
     20 C          58.5674   89.7483    6.7757 C.3     1  UNL1        0.0993
     21 N          59.4638   88.8162    7.5356 N.3     1  UNL1       -0.2665
     22 C          59.5253   87.3645    7.1630 C.3     1  UNL1        0.0899
     23 C          60.4218   86.4325    7.9229 C.3     1  UNL1        0.0897
     24 N          61.2568   86.9520    9.0556 N.3     1  UNL1       -0.2691
     25 C          62.1533   86.0198    9.8155 C.3     1  UNL1        0.0897
     26 C          61.1953   88.4036    9.4282 C.3     1  UNL1        0.0897
     27 C          60.2988   89.3358    8.6682 C.3     1  UNL1        0.0899
     28 N          59.4080   95.5710   -1.3908 N.pl3   1  UNL1       -0.3313
     29 H          58.7920   96.2143   -0.9714 H       1  UNL1        0.1469
     30 C          58.9671   94.7811   -2.5872 C.3     1  UNL1        0.0819
     31 C          58.3095   93.4332   -2.5602 C.3     1  UNL1        0.0983
     32 C          58.0423   93.0193   -3.9771 C.3     1  UNL1        0.0323
     33 C          58.1816   93.4386   -5.4105 C.2     1  UNL1       -0.0304
     34 C          58.8392   94.7865   -5.4375 C.2     1  UNL1       -0.0294
     35 C          59.1063   95.2003   -4.0207 C.3     1  UNL1        0.0404
     36 C          58.6139   94.1082   -3.1181 C.3     1  UNL1        0.0109
     37 C          57.9774   92.6386   -1.3321 C.2     1  UNL1        0.2208
     38 N          59.0428   91.8336   -0.6488 N.am    1  UNL1       -0.3288
     39 O          56.5799   92.6490   -0.7872 O.2     1  UNL1       -0.2753
     40 H          59.9600   91.8267   -1.0064 H       1  UNL1        0.1449
     41 H          58.8248   91.3120    0.1573 H       1  UNL1        0.1449
@<TRIPOS>BOND
     1    18    19    1
     2    19    12    1
     3    12    13   ar
     4    13    14   ar
     5    14    20    1
     6    20    21    1
     7    21    22    1
     8    22    23    1
     9    23    24    1
    10    24    25    1
    11    24    26    1
    12    26    27    1
    13    14    15   ar
    14    15    16   ar
    15    16    17   ar
    16    17     1    1
    17     1     2   ar
    18     2     3   ar
    19     3     4   ar
    20     4    28    1
    21    30    28    1
    22    30    31    1
    23    31    37    1
    24    37    38   am
    25    37    39    2
    26    31    32    1
    27    32    33    1
    28    33    34    2
    29    35    34    1
    30    35    36    1
    31     4     5   ar
    32     5     6    1
    33     5     7   ar
    34     7     8   ar
    35     8     9   ar
    36     9    10   ar
    37    17    12   ar
    38    10     1   ar
    39    27    21    1
    40     9     3    1
    41    35    30    1
    42    36    32    1
    43    28    29    1
    44    38    40    1
    45    38    41    1
    46     8    11    1
@<TRIPOS>MOLECULE
*****
 41 46 0 0 0
SMALL
GASTEIGER

@<TRIPOS>ATOM
      1 C          60.1930   92.9198    2.4128 C.ar    1  UNL1        0.1669
      2 N          59.6180   92.8145    1.0314 N.ar    1  UNL1       -0.2221
      3 C          60.3117   93.8216    0.1627 C.ar    1  UNL1        0.1307
      4 C          60.1590   94.1701   -1.2882 C.ar    1  UNL1        0.0777
      5 C          61.0101   95.2463   -1.8946 C.ar    1  UNL1        0.0893
      6 CL         60.8575   95.5948   -3.3456 Cl      1  UNL1       -0.0794
      7 C          62.0137   95.9739   -1.0501 C.ar    1  UNL1        0.0863
      8 N          62.1663   95.6254    0.4009 N.ar    1  UNL1       -0.3354
      9 C          61.3153   94.5493    1.0073 C.ar    1  UNL1        0.1613
     10 N          61.2419   93.9919    2.3979 N.ar    1  UNL1       -0.2080
     11 H          62.8250   96.1030    0.9551 H       1  UNL1        0.1675
     12 C          60.8353   91.4013    4.4207 C.ar    1  UNL1        0.1413
     13 C          60.4319   90.5788    5.6086 C.ar    1  UNL1        0.0341
     14 C          58.9833   90.4523    5.9763 C.ar    1  UNL1       -0.0031
     15 C          57.9378   91.1483    5.1562 C.ar    1  UNL1       -0.0026
     16 C          58.3411   91.9708    3.9684 C.ar    1  UNL1        0.0058
     17 C          59.7898   92.0973    3.6007 C.ar    1  UNL1        0.0697
     18 C          62.9414   90.4683    3.2193 C.3     1  UNL1        0.2525
     19 O          62.2840   91.5277    4.0531 O.3     1  UNL1       -0.4713
     20 C          58.5801   89.6298    7.1642 C.3     1  UNL1        0.0993
     21 N          59.5475   88.6522    7.7627 N.3     1  UNL1       -0.2665
     22 C          60.4793   89.0912    8.8531 C.3     1  UNL1        0.0899
     23 C          61.4468   88.1135    9.4516 C.3     1  UNL1        0.0897
     24 N          61.4826   86.6969    8.9596 N.3     1  UNL1       -0.2691
     25 C          62.4501   85.7193    9.5581 C.3     1  UNL1        0.0897
     26 C          60.5508   86.2580    7.8692 C.3     1  UNL1        0.0897
     27 C          59.5832   87.2357    7.2707 C.3     1  UNL1        0.0899
     28 N          59.1554   93.4425   -2.1328 N.pl3   1  UNL1       -0.3313
     29 H          59.4484   92.7167   -2.7300 H       1  UNL1        0.1469
     30 C          57.7053   93.8207   -2.0676 C.3     1  UNL1        0.0819
     31 C          56.5543   92.9866   -2.5464 C.3     1  UNL1        0.0983
     32 C          55.2893   93.7498   -2.2869 C.3     1  UNL1        0.0323
     33 C          54.7357   95.0284   -1.7313 C.2     1  UNL1       -0.0304
     34 C          55.8868   95.8625   -1.2525 C.2     1  UNL1       -0.0294
     35 C          57.1518   95.0993   -1.5121 C.3     1  UNL1        0.0404
     36 C          56.7825   93.7936   -2.1514 C.3     1  UNL1        0.0109
     37 C          56.6512   91.6279   -3.1746 C.2     1  UNL1        0.2208
     38 N          55.7874   90.5076   -2.6757 N.am    1  UNL1       -0.3288
     39 O          57.6118   91.3895   -4.3017 O.2     1  UNL1       -0.2753
     40 H          55.1570   90.6641   -1.9359 H       1  UNL1        0.1449
     41 H          55.8510   89.6159   -3.0879 H       1  UNL1        0.1449
@<TRIPOS>BOND
     1    18    19    1
     2    19    12    1
     3    12    13   ar
     4    13    14   ar
     5    14    20    1
     6    20    21    1
     7    21    22    1
     8    22    23    1
     9    23    24    1
    10    24    25    1
    11    24    26    1
    12    26    27    1
    13    14    15   ar
    14    15    16   ar
    15    16    17   ar
    16    17     1    1
    17     1     2   ar
    18     2     3   ar
    19     3     4   ar
    20     4    28    1
    21    30    28    1
    22    30    31    1
    23    31    37    1
    24    37    38   am
    25    37    39    2
    26    31    32    1
    27    32    33    1
    28    33    34    2
    29    35    34    1
    30    35    36    1
    31     4     5   ar
    32     5     6    1
    33     5     7   ar
    34     7     8   ar
    35     8     9   ar
    36     9    10   ar
    37    17    12   ar
    38    10     1   ar
    39    27    21    1
    40     9     3    1
    41    35    30    1
    42    36    32    1
    43    28    29    1
    44    38    40    1
    45    38    41    1
    46     8    11    1
@<TRIPOS>MOLECULE
*****
 41 46 0 0 0
SMALL
GASTEIGER

@<TRIPOS>ATOM
      1 C          63.8221   90.4242   13.1273 C.ar    1  UNL1        0.1669
      2 N          65.0063   91.2052   12.6397 N.ar    1  UNL1       -0.2221
      3 C          65.6325   91.8837   13.8218 C.ar    1  UNL1        0.1307
      4 C          66.8257   92.7842   13.9464 C.ar    1  UNL1        0.0777
      5 C          67.2216   93.3231   15.2892 C.ar    1  UNL1        0.0893
      6 CL         68.4148   94.2236   15.4138 Cl      1  UNL1       -0.0794
      7 C          66.4245   92.9614   16.5072 C.ar    1  UNL1        0.0863
      8 N          65.2314   92.0609   16.3826 N.ar    1  UNL1       -0.3354
      9 C          64.8354   91.5221   15.0399 C.ar    1  UNL1        0.1613
     10 N          63.7165   90.6200   14.6107 N.ar    1  UNL1       -0.2080
     11 H          64.7082   91.8236   17.1821 H       1  UNL1        0.1675
     12 C          62.9246   88.0979   12.3973 C.ar    1  UNL1        0.1413
     13 C          62.0071   87.2669   11.5501 C.ar    1  UNL1        0.0341
     14 C          61.0696   87.9312   10.5858 C.ar    1  UNL1       -0.0031
     15 C          61.0496   89.4264   10.4687 C.ar    1  UNL1       -0.0026
     16 C          61.9672   90.2574   11.3158 C.ar    1  UNL1        0.0058
     17 C          62.9046   89.5931   12.2801 C.ar    1  UNL1        0.0697
     18 C          63.7232   85.9689   13.6542 C.3     1  UNL1        0.2525
     19 O          63.8620   87.4335   13.3616 O.3     1  UNL1       -0.4713
     20 C          60.1521   87.1002    9.7387 C.3     1  UNL1        0.0993
     21 N          60.7072   86.2880    8.6064 N.3     1  UNL1       -0.2665
     22 C          62.1500   85.8778    8.6143 C.3     1  UNL1        0.0899
     23 C          62.7050   85.0656    7.4819 C.3     1  UNL1        0.0897
     24 N          61.8172   84.6636    6.3415 N.3     1  UNL1       -0.2691
     25 C          62.3723   83.8514    5.2092 C.3     1  UNL1        0.0897
     26 C          60.3744   85.0738    6.3336 C.3     1  UNL1        0.0897
     27 C          59.8194   85.8860    7.4661 C.3     1  UNL1        0.0899
     28 N          67.6229   93.1460   12.7283 N.pl3   1  UNL1       -0.3313
     29 H          68.5276   92.7780   12.6050 H       1  UNL1        0.1469
     30 C          67.0415   94.0683   11.6981 C.3     1  UNL1        0.0819
     31 C          67.1775   93.9268   10.2110 C.3     1  UNL1        0.0983
     32 C          66.4421   95.0651    9.5679 C.3     1  UNL1        0.0323
     33 C          65.6227   96.2908    9.8440 C.2     1  UNL1       -0.0304
     34 C          65.4868   96.4323   11.3310 C.2     1  UNL1       -0.0294
     35 C          66.2221   95.2940   11.9741 C.3     1  UNL1        0.0404
     36 C          66.8126   94.4490   10.8845 C.3     1  UNL1        0.0109
     37 C          67.9186   92.8381    9.4930 C.2     1  UNL1        0.2208
     38 N          68.4521   93.0788    8.1119 N.am    1  UNL1       -0.3288
     39 O          68.1263   91.5088   10.1561 O.2     1  UNL1       -0.2753
     40 H          68.3159   93.9513    7.6767 H       1  UNL1        0.1449
     41 H          68.9386   92.3643    7.6407 H       1  UNL1        0.1449
@<TRIPOS>BOND
     1    18    19    1
     2    19    12    1
     3    12    13   ar
     4    13    14   ar
     5    14    20    1
     6    20    21    1
     7    21    22    1
     8    22    23    1
     9    23    24    1
    10    24    25    1
    11    24    26    1
    12    26    27    1
    13    14    15   ar
    14    15    16   ar
    15    16    17   ar
    16    17     1    1
    17     1     2   ar
    18     2     3   ar
    19     3     4   ar
    20     4    28    1
    21    30    28    1
    22    30    31    1
    23    31    37    1
    24    37    38   am
    25    37    39    2
    26    31    32    1
    27    32    33    1
    28    33    34    2
    29    35    34    1
    30    35    36    1
    31     4     5   ar
    32     5     6    1
    33     5     7   ar
    34     7     8   ar
    35     8     9   ar
    36     9    10   ar
    37    17    12   ar
    38    10     1   ar
    39    27    21    1
    40     9     3    1
    41    35    30    1
    42    36    32    1
    43    28    29    1
    44    38    40    1
    45    38    41    1
    46     8    11    1
