@<TRIPOS>MOLECULE
*****
 38 43 0 0 0
SMALL
GASTEIGER

@<TRIPOS>ATOM
      1 C          64.6919   84.9809   15.8289 C.3     1  UNL1        0.0722
      2 C          64.0844   85.5306   14.7560 C.ar    1  UNL1        0.1246
      3 N          64.2771   86.9925   14.4809 N.ar    1  UNL1       -0.2305
      4 C          63.5010   87.3378   13.2445 C.ar    1  UNL1        0.1015
      5 C          63.3197   88.6277   12.5008 C.ar    1  UNL1        0.0548
      6 C          62.4659   88.6691   11.2681 C.ar    1  UNL1        0.0047
      7 C          61.7936   87.4206   10.7792 C.ar    1  UNL1        0.0039
      8 C          61.9749   86.1306   11.5229 C.ar    1  UNL1        0.0192
      9 C          62.8286   86.0892   12.7556 C.ar    1  UNL1        0.0827
     10 N          63.1892   84.9724   13.6897 N.ar    1  UNL1       -0.2935
     11 C          62.7344   83.5473   13.5773 C.ar    1  UNL1        0.0703
     12 C          61.9007   82.9381   14.6653 C.ar    1  UNL1        0.0383
     13 C          61.4460   81.5132   14.5528 C.ar    1  UNL1        0.1004
     14 N          61.8248   80.6975   13.3524 N.ar    1  UNL1       -0.2414
     15 C          62.6585   81.3067   12.2644 C.ar    1  UNL1        0.1122
     16 C          63.0374   80.4910   11.0639 C.ar    1  UNL1        0.1578
     17 F          62.5826   79.0661   10.9514 F       1  UNL1       -0.2026
     18 C          63.8711   81.1003    9.9759 C.ar    1  UNL1        0.0335
     19 C          64.3259   82.5253   10.0883 C.ar    1  UNL1        0.0321
     20 C          63.9470   83.3410   11.2888 C.ar    1  UNL1        0.1431
     21 F          64.4300   84.6008   11.2443 F       1  UNL1       -0.2041
     22 C          63.1133   82.7317   12.3768 C.ar    1  UNL1        0.0635
     23 C          60.9399   87.4620    9.5465 C.ar    1  UNL1        0.0319
     24 C          60.4844   86.1842    8.9064 C.ar    1  UNL1        0.0230
     25 C          59.6307   86.2256    7.6737 C.ar    1  UNL1        0.1004
     26 N          59.2325   87.5448    7.0812 N.ar    1  UNL1       -0.2273
     27 C          59.6879   88.8225    7.7212 C.ar    1  UNL1        0.1531
     28 N          59.2898   90.1417    7.1287 N.pl3   1  UNL1       -0.3408
     29 C          60.5417   88.7812    8.9540 C.ar    1  UNL1        0.1710
     30 F          60.9972   90.0590    9.5941 F       1  UNL1       -0.2012
     31 H          58.7294   90.1689    6.3197 H       1  UNL1        0.1438
     32 H          59.5887   90.9804    7.5488 H       1  UNL1        0.1438
     33 C          63.9920   89.8762   12.9897 C.ar    1  UNL1        0.1647
     34 N          64.0221   91.1973   12.2799 N.ar    1  UNL1       -0.1288
     35 N          64.8010   92.1604   13.1258 N.ar    1  UNL1       -0.1258
     36 C          65.2523   91.4347   14.3585 C.ar    1  UNL1        0.1992
     37 N          64.7524   90.0230   14.2744 N.ar    1  UNL1       -0.3187
     38 H          64.8978   89.3167   14.9447 H       1  UNL1        0.1690
@<TRIPOS>BOND
     1     1     2    1
     2     2     3   ar
     3     3     4   ar
     4     4     5   ar
     5     5    33    1
     6    33    34   ar
     7    34    35   ar
     8    35    36   ar
     9    36    37   ar
    10     5     6   ar
    11     6     7   ar
    12     7    23    1
    13    23    24   ar
    14    24    25   ar
    15    25    26   ar
    16    26    27   ar
    17    27    28    1
    18    27    29   ar
    19    29    30    1
    20     7     8   ar
    21     8     9   ar
    22     9    10   ar
    23    10    11    1
    24    11    12   ar
    25    12    13   ar
    26    13    14   ar
    27    14    15   ar
    28    15    16   ar
    29    16    17    1
    30    16    18   ar
    31    18    19   ar
    32    19    20   ar
    33    20    21    1
    34    20    22   ar
    35    10     2   ar
    36    22    11   ar
    37     9     4   ar
    38    22    15   ar
    39    37    33   ar
    40    29    23   ar
    41    37    38    1
    42    28    31    1
    43    28    32    1
@<TRIPOS>MOLECULE
*****
 38 43 0 0 0
SMALL
GASTEIGER

@<TRIPOS>ATOM
      1 C          65.3711   84.5391   14.9388 C.3     1  UNL1        0.0722
      2 C          64.6189   85.3013   14.1168 C.ar    1  UNL1        0.1246
      3 N          64.3994   86.7445   14.4616 N.ar    1  UNL1       -0.2305
      4 C          63.5384   87.3506   13.3931 C.ar    1  UNL1        0.1015
      5 C          62.9987   88.7374   13.2056 C.ar    1  UNL1        0.0548
      6 C          62.1464   89.0557   12.0129 C.ar    1  UNL1        0.0047
      7 C          61.8339   87.9870   11.0079 C.ar    1  UNL1        0.0039
      8 C          62.3736   86.6001   11.1954 C.ar    1  UNL1        0.0192
      9 C          63.2259   86.2819   12.3881 C.ar    1  UNL1        0.0827
     10 N          63.8937   85.0153   12.8353 N.ar    1  UNL1       -0.2935
     11 C          63.8448   83.6947   12.1256 C.ar    1  UNL1        0.0703
     12 C          64.5611   83.5181   10.8196 C.ar    1  UNL1        0.0383
     13 C          64.5121   82.1976   10.1100 C.ar    1  UNL1        0.1004
     14 N          63.7469   81.0535   10.7063 N.ar    1  UNL1       -0.2414
     15 C          63.0306   81.2301   12.0123 C.ar    1  UNL1        0.1122
     16 C          62.2654   80.0861   12.6087 C.ar    1  UNL1        0.1578
     17 F          62.2164   78.7655   11.8991 F       1  UNL1       -0.2026
     18 C          61.5491   80.2627   13.9147 C.ar    1  UNL1        0.0335
     19 C          61.5980   81.5833   14.6244 C.ar    1  UNL1        0.0321
     20 C          62.3632   82.7273   14.0281 C.ar    1  UNL1        0.1431
     21 F          62.3131   83.8457   14.7825 F       1  UNL1       -0.2041
     22 C          63.0795   82.5507   12.7220 C.ar    1  UNL1        0.0635
     23 C          60.9816   88.3052    9.8153 C.ar    1  UNL1        0.0319
     24 C          60.8299   89.7262    9.3595 C.ar    1  UNL1        0.0230
     25 C          59.9776   90.0444    8.1669 C.ar    1  UNL1        0.1004
     26 N          59.2771   88.9416    7.4300 N.ar    1  UNL1       -0.2273
     27 C          59.4288   87.5206    7.8857 C.ar    1  UNL1        0.1531
     28 N          58.7282   86.4178    7.1488 N.pl3   1  UNL1       -0.3408
     29 C          60.2811   87.2023    9.0784 C.ar    1  UNL1        0.1710
     30 F          60.4328   85.7813    9.5341 F       1  UNL1       -0.2012
     31 H          58.1689   86.6266    6.3660 H       1  UNL1        0.1438
     32 H          58.8278   85.4851    7.4479 H       1  UNL1        0.1438
     33 C          63.3112   89.8061   14.2107 C.ar    1  UNL1        0.1647
     34 N          63.8168   91.1845   13.9036 N.ar    1  UNL1       -0.1288
     35 N          63.9910   91.9144   15.2025 N.ar    1  UNL1       -0.1258
     36 C          63.5932   90.9870   16.3123 C.ar    1  UNL1        0.1992
     37 N          63.1730   89.6840   15.6994 N.ar    1  UNL1       -0.3187
     38 H          62.8613   88.8884   16.1883 H       1  UNL1        0.1690
@<TRIPOS>BOND
     1     1     2    1
     2     2     3   ar
     3     3     4   ar
     4     4     5   ar
     5     5    33    1
     6    33    34   ar
     7    34    35   ar
     8    35    36   ar
     9    36    37   ar
    10     5     6   ar
    11     6     7   ar
    12     7    23    1
    13    23    24   ar
    14    24    25   ar
    15    25    26   ar
    16    26    27   ar
    17    27    28    1
    18    27    29   ar
    19    29    30    1
    20     7     8   ar
    21     8     9   ar
    22     9    10   ar
    23    10    11    1
    24    11    12   ar
    25    12    13   ar
    26    13    14   ar
    27    14    15   ar
    28    15    16   ar
    29    16    17    1
    30    16    18   ar
    31    18    19   ar
    32    19    20   ar
    33    20    21    1
    34    20    22   ar
    35    10     2   ar
    36    22    11   ar
    37     9     4   ar
    38    22    15   ar
    39    37    33   ar
    40    29    23   ar
    41    37    38    1
    42    28    31    1
    43    28    32    1
@<TRIPOS>MOLECULE
*****
 38 43 0 0 0
SMALL
GASTEIGER

@<TRIPOS>ATOM
      1 C          68.0834   92.5628   14.1000 C.3     1  UNL1        0.0722
      2 C          66.9856   91.9785   13.5748 C.ar    1  UNL1        0.1246
      3 N          66.0527   91.2343   14.4836 N.ar    1  UNL1       -0.2305
      4 C          64.9298   90.6907   13.6508 C.ar    1  UNL1        0.1015
      5 C          63.7207   89.8767   14.0046 C.ar    1  UNL1        0.0548
      6 C          62.7503   89.4710   12.9351 C.ar    1  UNL1        0.0047
      7 C          62.9892   89.8793   11.5117 C.ar    1  UNL1        0.0039
      8 C          64.1984   90.6934   11.1578 C.ar    1  UNL1        0.0192
      9 C          65.1687   91.0990   12.2273 C.ar    1  UNL1        0.0827
     10 N          66.4392   91.8950   12.1804 N.ar    1  UNL1       -0.2935
     11 C          67.0552   92.5010   10.9543 C.ar    1  UNL1        0.0703
     12 C          67.8884   91.6553   10.0374 C.ar    1  UNL1        0.0383
     13 C          68.5044   92.2613    8.8113 C.ar    1  UNL1        0.1004
     14 N          68.2872   93.7130    8.5021 N.ar    1  UNL1       -0.2414
     15 C          67.4540   94.5586    9.4190 C.ar    1  UNL1        0.1122
     16 C          67.2367   96.0102    9.1097 C.ar    1  UNL1        0.1578
     17 F          67.8527   96.6162    7.8836 F       1  UNL1       -0.2026
     18 C          66.4036   96.8558   10.0266 C.ar    1  UNL1        0.0335
     19 C          65.7875   96.2498   11.2527 C.ar    1  UNL1        0.0321
     20 C          66.0048   94.7982   11.5620 C.ar    1  UNL1        0.1431
     21 F          65.3880   94.4024   12.6957 F       1  UNL1       -0.2041
     22 C          66.8380   93.9526   10.6450 C.ar    1  UNL1        0.0635
     23 C          62.0189   89.4737   10.4421 C.ar    1  UNL1        0.0319
     24 C          61.1275   90.5008    9.8093 C.ar    1  UNL1        0.0230
     25 C          60.1572   90.0952    8.7397 C.ar    1  UNL1        0.1004
     26 N          60.0783   88.6623    8.3030 N.ar    1  UNL1       -0.2273
     27 C          60.9695   87.6352    8.9358 C.ar    1  UNL1        0.1531
     28 N          60.8906   86.2024    8.4991 N.pl3   1  UNL1       -0.3408
     29 C          61.9399   88.0408   10.0054 C.ar    1  UNL1        0.1710
     30 F          62.8312   87.0137   10.6383 F       1  UNL1       -0.2012
     31 H          60.2537   85.9361    7.7971 H       1  UNL1        0.1438
     32 H          61.4756   85.5282    8.9145 H       1  UNL1        0.1438
     33 C          63.4818   89.4683   15.4281 C.ar    1  UNL1        0.1647
     34 N          63.3572   90.3939   16.6018 N.ar    1  UNL1       -0.1288
     35 N          63.1240   89.5603   17.8268 N.ar    1  UNL1       -0.1258
     36 C          63.1043   88.1194   17.4102 C.ar    1  UNL1        0.1992
     37 N          63.3254   88.0626   15.9277 N.ar    1  UNL1       -0.3187
     38 H          63.3616   87.2460   15.3789 H       1  UNL1        0.1690
@<TRIPOS>BOND
     1     1     2    1
     2     2     3   ar
     3     3     4   ar
     4     4     5   ar
     5     5    33    1
     6    33    34   ar
     7    34    35   ar
     8    35    36   ar
     9    36    37   ar
    10     5     6   ar
    11     6     7   ar
    12     7    23    1
    13    23    24   ar
    14    24    25   ar
    15    25    26   ar
    16    26    27   ar
    17    27    28    1
    18    27    29   ar
    19    29    30    1
    20     7     8   ar
    21     8     9   ar
    22     9    10   ar
    23    10    11    1
    24    11    12   ar
    25    12    13   ar
    26    13    14   ar
    27    14    15   ar
    28    15    16   ar
    29    16    17    1
    30    16    18   ar
    31    18    19   ar
    32    19    20   ar
    33    20    21    1
    34    20    22   ar
    35    10     2   ar
    36    22    11   ar
    37     9     4   ar
    38    22    15   ar
    39    37    33   ar
    40    29    23   ar
    41    37    38    1
    42    28    31    1
    43    28    32    1
@<TRIPOS>MOLECULE
*****
 38 43 0 0 0
SMALL
GASTEIGER

@<TRIPOS>ATOM
      1 C          62.0446   91.7081   10.6940 C.3     1  UNL1        0.0722
      2 C          62.2077   90.4131   11.0384 C.ar    1  UNL1        0.1246
      3 N          61.6342   89.3472   10.1524 N.ar    1  UNL1       -0.2305
      4 C          61.9564   88.0149   10.7618 C.ar    1  UNL1        0.1015
      5 C          61.6461   86.6124   10.3301 C.ar    1  UNL1        0.0548
      6 C          62.1084   85.4522   11.1610 C.ar    1  UNL1        0.0047
      7 C          62.8811   85.6947   12.4236 C.ar    1  UNL1        0.0039
      8 C          63.1914   87.0974   12.8553 C.ar    1  UNL1        0.0192
      9 C          62.7291   88.2575   12.0244 C.ar    1  UNL1        0.0827
     10 N          62.8844   89.7396   12.1953 N.ar    1  UNL1       -0.2935
     11 C          63.5921   90.4275   13.3250 C.ar    1  UNL1        0.0703
     12 C          63.2081   90.1282   14.7437 C.ar    1  UNL1        0.0383
     13 C          63.9158   90.8161   15.8733 C.ar    1  UNL1        0.1004
     14 N          65.0076   91.8032   15.5841 N.ar    1  UNL1       -0.2414
     15 C          65.3917   92.1024   14.1653 C.ar    1  UNL1        0.1122
     16 C          66.4835   93.0895   13.8761 C.ar    1  UNL1        0.1578
     17 F          67.1912   93.7773   15.0057 F       1  UNL1       -0.2026
     18 C          66.8675   93.3887   12.4574 C.ar    1  UNL1        0.0335
     19 C          66.1598   92.7008   11.3277 C.ar    1  UNL1        0.0321
     20 C          65.0680   91.7137   11.6169 C.ar    1  UNL1        0.1431
     21 F          64.5292   91.1807   10.4997 F       1  UNL1       -0.2041
     22 C          64.6839   91.4145   13.0358 C.ar    1  UNL1        0.0635
     23 C          63.3434   84.5347   13.2546 C.ar    1  UNL1        0.0319
     24 C          64.1289   84.7767   14.5093 C.ar    1  UNL1        0.0230
     25 C          64.5912   83.6166   15.3403 C.ar    1  UNL1        0.1004
     26 N          64.2680   82.2145   14.9164 N.ar    1  UNL1       -0.2273
     27 C          63.4826   81.9725   13.6618 C.ar    1  UNL1        0.1531
     28 N          63.1594   80.5704   13.2379 N.pl3   1  UNL1       -0.3408
     29 C          63.0202   83.1326   12.8307 C.ar    1  UNL1        0.1710
     30 F          62.2347   82.8906   11.5760 F       1  UNL1       -0.2012
     31 H          63.4628   79.8090   13.7833 H       1  UNL1        0.1438
     32 H          62.6438   80.4115   12.4144 H       1  UNL1        0.1438
     33 C          60.8735   86.3698    9.0675 C.ar    1  UNL1        0.1647
     34 N          61.2668   85.4403    7.9579 N.ar    1  UNL1       -0.1288
     35 N          60.2082   85.5102    6.8975 N.ar    1  UNL1       -0.1258
     36 C          59.1607   86.4830    7.3516 C.ar    1  UNL1        0.1992
     37 N          59.5718   87.0142    8.6928 N.ar    1  UNL1       -0.3187
     38 H          59.0745   87.6706    9.2324 H       1  UNL1        0.1690
@<TRIPOS>BOND
     1     1     2    1
     2     2     3   ar
     3     3     4   ar
     4     4     5   ar
     5     5    33    1
     6    33    34   ar
     7    34    35   ar
     8    35    36   ar
     9    36    37   ar
    10     5     6   ar
    11     6     7   ar
    12     7    23    1
    13    23    24   ar
    14    24    25   ar
    15    25    26   ar
    16    26    27   ar
    17    27    28    1
    18    27    29   ar
    19    29    30    1
    20     7     8   ar
    21     8     9   ar
    22     9    10   ar
    23    10    11    1
    24    11    12   ar
    25    12    13   ar
    26    13    14   ar
    27    14    15   ar
    28    15    16   ar
    29    16    17    1
    30    16    18   ar
    31    18    19   ar
    32    19    20   ar
    33    20    21    1
    34    20    22   ar
    35    10     2   ar
    36    22    11   ar
    37     9     4   ar
    38    22    15   ar
    39    37    33   ar
    40    29    23   ar
    41    37    38    1
    42    28    31    1
    43    28    32    1
