@<TRIPOS>MOLECULE
*****
 58 63 0 0 0
SMALL
GASTEIGER

@<TRIPOS>ATOM
      1 C          59.8008   90.3447    6.2160 C.ar    1  UNL1        0.0172
      2 C          61.1223   90.5736    5.5442 C.ar    1  UNL1        0.0015
      3 C          61.1900   91.3678    4.2735 C.ar    1  UNL1        0.0000
      4 C          59.9362   91.9330    3.6746 C.ar    1  UNL1        0.0000
      5 C          58.6148   91.7041    4.3464 C.ar    1  UNL1        0.0000
      6 C          58.5471   90.9100    5.6171 C.ar    1  UNL1        0.0015
      7 C          59.7100   88.9589    9.8405 C.ar    1  UNL1        0.1353
      8 N          59.5477   87.6982    9.0440 N.ar    1  UNL1       -0.2279
      9 C          59.5620   88.0639    7.5893 C.ar    1  UNL1        0.1171
     10 C          59.7331   89.5506    7.4868 C.ar    1  UNL1        0.0769
     11 N          59.8245   90.1037    8.8781 N.ar    1  UNL1       -0.3394
     12 H          59.9395   91.0517    9.1175 H       1  UNL1        0.1671
     13 C          62.3731   89.4624   11.6581 C.2     1  UNL1        0.2439
     14 O          62.6419   89.4106   10.1833 O.2     1  UNL1       -0.2731
     15 N          60.9746   89.2889   12.1721 N.am    1  UNL1       -0.2730
     16 C          60.5547   89.3163   13.6119 C.3     1  UNL1        0.0939
     17 C          59.0711   89.1019   13.6662 C.3     1  UNL1        0.0237
     18 C          58.5741   88.9419   12.2601 C.3     1  UNL1        0.0293
     19 C          59.7505   89.0574   11.3367 C.3     1  UNL1        0.1319
     20 C          63.5027   89.6877   12.6189 C.3     1  UNL1        0.1512
     21 C          63.5686   87.1860   13.3170 C.2     1  UNL1        0.4021
     22 O          62.9151   86.8072   12.0211 O.2     1  UNL1       -0.2264
     23 N          63.8624   88.6263   13.6160 N.am    1  UNL1       -0.2640
     24 H          64.2913   88.8750   14.4665 H       1  UNL1        0.1532
     25 C          63.9584   84.6839   13.8979 C.3     1  UNL1        0.2573
     26 O          63.9283   86.1247   14.3141 O.3     1  UNL1       -0.4306
     27 C          64.2726   90.9745   12.5827 C.3     1  UNL1        0.0270
     28 C          64.3861   91.7448   11.3007 C.3     1  UNL1        0.0022
     29 C          64.9292   91.4911   13.8286 C.3     1  UNL1        0.0022
     30 C          60.0040   92.7272    2.4038 C.ar    1  UNL1        0.0000
     31 C          58.8273   92.7564    1.4741 C.ar    1  UNL1        0.0000
     32 C          58.8950   93.5506    0.2033 C.ar    1  UNL1        0.0015
     33 C          60.1395   94.3155   -0.1376 C.ar    1  UNL1        0.0172
     34 C          61.3162   94.2862    0.7922 C.ar    1  UNL1        0.0015
     35 C          61.2484   93.4921    2.0629 C.ar    1  UNL1        0.0000
     36 C          60.2073   95.1096   -1.4083 C.ar    1  UNL1        0.0769
     37 C          60.9061   96.4244   -1.5901 C.ar    1  UNL1        0.1171
     38 N          60.7189   96.8558   -3.0145 N.ar    1  UNL1       -0.2279
     39 C          59.9044   95.8076   -3.7130 C.ar    1  UNL1        0.1353
     40 N          59.5882   94.7284   -2.7203 N.ar    1  UNL1       -0.3394
     41 H          59.0661   93.9131   -2.8986 H       1  UNL1        0.1671
     42 C          59.4804   95.8340   -5.1516 C.3     1  UNL1        0.1319
     43 C          60.3302   96.2556   -6.3136 C.3     1  UNL1        0.0293
     44 C          59.5073   96.1256   -7.5609 C.3     1  UNL1        0.0237
     45 C          58.1489   95.6235   -7.1699 C.3     1  UNL1        0.0939
     46 N          58.1324   95.4433   -5.6809 N.am    1  UNL1       -0.2730
     47 C          56.9716   94.9577   -4.8644 C.2     1  UNL1        0.2439
     48 O          57.1038   94.8275   -3.3759 O.2     1  UNL1       -0.2731
     49 C          55.6784   94.6022   -5.5365 C.3     1  UNL1        0.1512
     50 N          55.5719   93.3380   -6.3367 N.am    1  UNL1       -0.2640
     51 C          55.7404   92.0081   -5.6638 C.2     1  UNL1        0.4021
     52 O          56.0155   91.9423   -4.1908 O.2     1  UNL1       -0.2264
     53 H          55.3913   93.3812   -7.3035 H       1  UNL1        0.1532
     54 O          55.6339   90.7438   -6.4641 O.3     1  UNL1       -0.4306
     55 C          54.2862   90.2211   -6.8647 C.3     1  UNL1        0.2573
     56 C          54.4920   95.5109   -5.4082 C.3     1  UNL1        0.0270
     57 C          53.7927   96.0095   -6.6380 C.3     1  UNL1        0.0022
     58 C          54.0047   95.9211   -4.0501 C.3     1  UNL1        0.0022
@<TRIPOS>BOND
     1    25    26    1
     2    26    21    1
     3    21    22    2
     4    21    23   am
     5    20    23    1
     6    20    13    1
     7    13    14    2
     8    13    15   am
     9    15    16    1
    10    16    17    1
    11    17    18    1
    12    18    19    1
    13    19     7    1
    14     7     8   ar
    15     8     9   ar
    16     9    10   ar
    17    10     1    1
    18     1     2   ar
    19     2     3   ar
    20     3     4   ar
    21     4    30    1
    22    30    31   ar
    23    31    32   ar
    24    32    33   ar
    25    33    36    1
    26    36    37   ar
    27    37    38   ar
    28    38    39   ar
    29    42    39    1
    30    42    43    1
    31    43    44    1
    32    44    45    1
    33    45    46    1
    34    46    47   am
    35    47    48    2
    36    47    49    1
    37    49    50    1
    38    50    51   am
    39    51    52    2
    40    51    54    1
    41    54    55    1
    42    49    56    1
    43    56    57    1
    44    56    58    1
    45    39    40   ar
    46    33    34   ar
    47    34    35   ar
    48     4     5   ar
    49     5     6   ar
    50    10    11   ar
    51    20    27    1
    52    27    28    1
    53    27    29    1
    54    19    15    1
    55    11     7   ar
    56     6     1   ar
    57    35    30   ar
    58    40    36   ar
    59    46    42    1
    60    23    24    1
    61    50    53    1
    62    40    41    1
    63    11    12    1
@<TRIPOS>MOLECULE
*****
 58 63 0 0 0
SMALL
GASTEIGER

@<TRIPOS>ATOM
      1 C          59.8623   90.3190    6.2676 C.ar    1  UNL1        0.0172
      2 C          58.5998   90.8968    5.6999 C.ar    1  UNL1        0.0015
      3 C          58.6438   91.6893    4.4271 C.ar    1  UNL1        0.0000
      4 C          59.9503   91.9039    3.7220 C.ar    1  UNL1        0.0000
      5 C          61.2127   91.3261    4.2897 C.ar    1  UNL1        0.0000
      6 C          61.1687   90.5336    5.5625 C.ar    1  UNL1        0.0015
      7 C          59.7550   88.9436    9.8956 C.ar    1  UNL1        0.1353
      8 N          59.7463   87.6703    9.1025 N.ar    1  UNL1       -0.2279
      9 C          59.7855   88.0306    7.6470 C.ar    1  UNL1        0.1171
     10 C          59.8183   89.5264    7.5404 C.ar    1  UNL1        0.0769
     11 N          59.7994   90.0907    8.9301 N.ar    1  UNL1       -0.3394
     12 H          59.8138   91.0461    9.1670 H       1  UNL1        0.1671
     13 C          62.1885   90.0061   11.7924 C.2     1  UNL1        0.2439
     14 O          62.5105   90.0106   10.3274 O.2     1  UNL1       -0.2731
     15 N          60.8431   89.5392   12.2633 N.am    1  UNL1       -0.2730
     16 C          60.3800   89.4787   13.6887 C.3     1  UNL1        0.0939
     17 C          58.9752   88.9529   13.6978 C.3     1  UNL1        0.0237
     18 C          58.5701   88.6884   12.2780 C.3     1  UNL1        0.0293
     19 C          59.7245   89.0508   11.3914 C.3     1  UNL1        0.1319
     20 C          63.2121   90.4687   12.7867 C.3     1  UNL1        0.1512
     21 C          65.2489   92.0444   13.1304 C.2     1  UNL1        0.4021
     22 O          66.0045   90.9253   13.7835 O.2     1  UNL1       -0.2264
     23 N          63.8527   91.8161   12.6320 N.am    1  UNL1       -0.2640
     24 H          63.3567   92.5507   12.2034 H       1  UNL1        0.1532
     25 C          65.9833   94.0265   11.6198 C.3     1  UNL1        0.2573
     26 O          65.8894   93.3919   12.9758 O.3     1  UNL1       -0.4306
     27 C          63.5950   89.5836   13.9356 C.3     1  UNL1        0.0270
     28 C          63.9857   88.1571   13.6857 C.3     1  UNL1        0.0022
     29 C          63.5872   90.1250   15.3345 C.3     1  UNL1        0.0022
     30 C          59.9942   92.6965    2.4492 C.ar    1  UNL1        0.0000
     31 C          61.2261   93.4742    2.0921 C.ar    1  UNL1        0.0000
     32 C          61.2701   94.2667    0.8193 C.ar    1  UNL1        0.0015
     33 C          60.0821   94.2815   -0.0964 C.ar    1  UNL1        0.0172
     34 C          58.8502   93.5037    0.2607 C.ar    1  UNL1        0.0015
     35 C          58.8062   92.7112    1.5335 C.ar    1  UNL1        0.0000
     36 C          60.1260   95.0740   -1.3692 C.ar    1  UNL1        0.0769
     37 C          60.7010   96.4498   -1.5318 C.ar    1  UNL1        0.1171
     38 N          60.5330   96.8560   -2.9659 N.ar    1  UNL1       -0.2279
     39 C          59.8541   95.7310   -3.6897 C.ar    1  UNL1        0.1353
     40 N          59.6026   94.6298   -2.7028 N.ar    1  UNL1       -0.3394
     41 H          59.1700   93.7669   -2.8965 H       1  UNL1        0.1671
     42 C          59.4906   95.7110   -5.1449 C.3     1  UNL1        0.1319
     43 C          60.4005   96.0580   -6.2858 C.3     1  UNL1        0.0293
     44 C          59.6257   95.9019   -7.5606 C.3     1  UNL1        0.0237
     45 C          58.2369   95.4584   -7.2076 C.3     1  UNL1        0.0939
     46 N          58.1535   95.3404   -5.7146 N.am    1  UNL1       -0.2730
     47 C          56.9450   94.9248   -4.9292 C.2     1  UNL1        0.2439
     48 O          57.0118   94.8522   -3.4324 O.2     1  UNL1       -0.2731
     49 C          55.6697   94.5818   -5.6406 C.3     1  UNL1        0.1512
     50 N          55.5562   93.2910   -6.3960 N.am    1  UNL1       -0.2640
     51 C          55.7804   91.9866   -5.6902 C.2     1  UNL1        0.4021
     52 O          56.1181   91.9731   -4.2288 O.2     1  UNL1       -0.2264
     53 H          55.3345   93.2999   -7.3552 H       1  UNL1        0.1532
     54 O          55.6669   90.6958   -6.4457 O.3     1  UNL1       -0.4306
     55 C          54.3298   90.2336   -6.9442 C.3     1  UNL1        0.2573
     56 C          54.5079   95.5296   -5.5964 C.3     1  UNL1        0.0270
     57 C          53.8768   96.0025   -6.8722 C.3     1  UNL1        0.0022
     58 C          53.9773   96.0046   -4.2762 C.3     1  UNL1        0.0022
@<TRIPOS>BOND
     1    25    26    1
     2    26    21    1
     3    21    22    2
     4    21    23   am
     5    20    23    1
     6    20    13    1
     7    13    14    2
     8    13    15   am
     9    15    16    1
    10    16    17    1
    11    17    18    1
    12    18    19    1
    13    19     7    1
    14     7     8   ar
    15     8     9   ar
    16     9    10   ar
    17    10     1    1
    18     1     2   ar
    19     2     3   ar
    20     3     4   ar
    21     4    30    1
    22    30    31   ar
    23    31    32   ar
    24    32    33   ar
    25    33    36    1
    26    36    37   ar
    27    37    38   ar
    28    38    39   ar
    29    42    39    1
    30    42    43    1
    31    43    44    1
    32    44    45    1
    33    45    46    1
    34    46    47   am
    35    47    48    2
    36    47    49    1
    37    49    50    1
    38    50    51   am
    39    51    52    2
    40    51    54    1
    41    54    55    1
    42    49    56    1
    43    56    57    1
    44    56    58    1
    45    39    40   ar
    46    33    34   ar
    47    34    35   ar
    48     4     5   ar
    49     5     6   ar
    50    10    11   ar
    51    20    27    1
    52    27    28    1
    53    27    29    1
    54    19    15    1
    55    11     7   ar
    56     6     1   ar
    57    35    30   ar
    58    40    36   ar
    59    46    42    1
    60    23    24    1
    61    50    53    1
    62    40    41    1
    63    11    12    1
@<TRIPOS>MOLECULE
*****
 58 63 0 0 0
SMALL
GASTEIGER

@<TRIPOS>ATOM
      1 C          60.0728   90.3697    6.3026 C.ar    1  UNL1        0.0172
      2 C          58.7127   90.7102    5.7697 C.ar    1  UNL1        0.0015
      3 C          58.5801   91.4855    4.4925 C.ar    1  UNL1        0.0000
      4 C          59.8076   91.9202    3.7481 C.ar    1  UNL1        0.0000
      5 C          61.1678   91.5797    4.2810 C.ar    1  UNL1        0.0000
      6 C          61.3004   90.8044    5.5582 C.ar    1  UNL1        0.0015
      7 C          61.0465   88.7660    9.7005 C.ar    1  UNL1        0.1353
      8 N          59.7728   88.0369    9.3902 N.ar    1  UNL1       -0.2279
      9 C          59.2531   88.5489    8.0796 C.ar    1  UNL1        0.1171
     10 C          60.2055   89.5944    7.5799 C.ar    1  UNL1        0.0769
     11 N          61.3139   89.7285    8.5816 N.ar    1  UNL1       -0.3394
     12 H          62.0820   90.3409    8.5162 H       1  UNL1        0.1671
     13 C          61.9870   85.8957   10.9359 C.2     1  UNL1        0.2439
     14 O          61.1316   85.7809    9.7091 O.2     1  UNL1       -0.2731
     15 N          62.3348   87.2480   11.4840 N.am    1  UNL1       -0.2730
     16 C          63.1759   87.5184   12.6962 C.3     1  UNL1        0.0939
     17 C          63.2634   89.0048   12.8775 C.3     1  UNL1        0.0237
     18 C          62.4764   89.6531   11.7773 C.3     1  UNL1        0.0293
     19 C          61.9025   88.5673   10.9161 C.3     1  UNL1        0.1319
     20 C          62.4948   84.6582   11.6147 C.3     1  UNL1        0.1512
     21 C          63.2227   84.3691   14.0919 C.2     1  UNL1        0.4021
     22 O          64.6503   84.6122   13.7008 O.2     1  UNL1       -0.2264
     23 N          62.1450   84.3921   13.0488 N.am    1  UNL1       -0.2640
     24 H          61.2080   84.2325   13.3055 H       1  UNL1        0.1532
     25 C          62.3772   85.2194   16.3967 C.3     1  UNL1        0.2573
     26 O          62.8728   84.1030   15.5260 O.3     1  UNL1       -0.4306
     27 C          63.3524   83.6867   10.8592 C.3     1  UNL1        0.0270
     28 C          63.7943   82.4108   11.5125 C.3     1  UNL1        0.0022
     29 C          63.7682   83.9911    9.4504 C.3     1  UNL1        0.0022
     30 C          59.6750   92.6955    2.4709 C.ar    1  UNL1        0.0000
     31 C          60.6310   93.8109    2.1678 C.ar    1  UNL1        0.0000
     32 C          60.4983   94.5862    0.8905 C.ar    1  UNL1        0.0015
     33 C          59.4096   94.2460   -0.0837 C.ar    1  UNL1        0.0172
     34 C          58.4536   93.1306    0.2195 C.ar    1  UNL1        0.0015
     35 C          58.5863   92.3554    1.4967 C.ar    1  UNL1        0.0000
     36 C          59.2769   95.0213   -1.3609 C.ar    1  UNL1        0.0769
     37 C          59.1960   96.5142   -1.4818 C.ar    1  UNL1        0.1171
     38 N          59.0709   96.8553   -2.9371 N.ar    1  UNL1       -0.2279
     39 C          59.0745   95.5731   -3.7157 C.ar    1  UNL1        0.1353
     40 N          59.2018   94.4397   -2.7415 N.ar    1  UNL1       -0.3394
     41 H          59.2310   93.4821   -2.9684 H       1  UNL1        0.1671
     42 C          58.9693   95.4467   -5.2066 C.3     1  UNL1        0.1319
     43 C          60.1090   95.5121   -6.1797 C.3     1  UNL1        0.0293
     44 C          59.5499   95.3384   -7.5607 C.3     1  UNL1        0.0237
     45 C          58.0647   95.1658   -7.4412 C.3     1  UNL1        0.0939
     46 N          57.7059   95.2327   -5.9863 N.am    1  UNL1       -0.2730
     47 C          56.3259   95.1075   -5.4120 C.2     1  UNL1        0.2439
     48 O          56.1200   95.1953   -3.9288 O.2     1  UNL1       -0.2731
     49 C          55.1517   94.8946   -6.3209 C.3     1  UNL1        0.1512
     50 N          55.1028   93.6899   -7.2132 N.am    1  UNL1       -0.2640
     51 C          55.3917   92.3290   -6.6525 C.2     1  UNL1        0.4021
     52 O          55.7295   92.1728   -5.1995 O.2     1  UNL1       -0.2264
     53 H          54.8811   93.7925   -8.1669 H       1  UNL1        0.1532
     54 O          55.3429   91.1243   -7.5449 O.3     1  UNL1       -0.4306
     55 C          54.3918   90.0046   -7.2420 C.3     1  UNL1        0.2573
     56 C          54.0264   95.8863   -6.3373 C.3     1  UNL1        0.0270
     57 C          53.7789   96.7196   -7.5597 C.3     1  UNL1        0.0022
     58 C          53.1486   96.0446   -5.1313 C.3     1  UNL1        0.0022
@<TRIPOS>BOND
     1    25    26    1
     2    26    21    1
     3    21    22    2
     4    21    23   am
     5    20    23    1
     6    20    13    1
     7    13    14    2
     8    13    15   am
     9    15    16    1
    10    16    17    1
    11    17    18    1
    12    18    19    1
    13    19     7    1
    14     7     8   ar
    15     8     9   ar
    16     9    10   ar
    17    10     1    1
    18     1     2   ar
    19     2     3   ar
    20     3     4   ar
    21     4    30    1
    22    30    31   ar
    23    31    32   ar
    24    32    33   ar
    25    33    36    1
    26    36    37   ar
    27    37    38   ar
    28    38    39   ar
    29    42    39    1
    30    42    43    1
    31    43    44    1
    32    44    45    1
    33    45    46    1
    34    46    47   am
    35    47    48    2
    36    47    49    1
    37    49    50    1
    38    50    51   am
    39    51    52    2
    40    51    54    1
    41    54    55    1
    42    49    56    1
    43    56    57    1
    44    56    58    1
    45    39    40   ar
    46    33    34   ar
    47    34    35   ar
    48     4     5   ar
    49     5     6   ar
    50    10    11   ar
    51    20    27    1
    52    27    28    1
    53    27    29    1
    54    19    15    1
    55    11     7   ar
    56     6     1   ar
    57    35    30   ar
    58    40    36   ar
    59    46    42    1
    60    23    24    1
    61    50    53    1
    62    40    41    1
    63    11    12    1
@<TRIPOS>MOLECULE
*****
 58 63 0 0 0
SMALL
GASTEIGER

@<TRIPOS>ATOM
      1 C          60.0000   90.4200    6.2455 C.ar    1  UNL1        0.0172
      2 C          61.2018   90.7891    5.4273 C.ar    1  UNL1        0.0015
      3 C          61.0326   91.5609    4.1523 C.ar    1  UNL1        0.0000
      4 C          59.6617   91.9634    3.6954 C.ar    1  UNL1        0.0000
      5 C          58.4600   91.5942    4.5136 C.ar    1  UNL1        0.0000
      6 C          58.6292   90.8225    5.7887 C.ar    1  UNL1        0.0015
      7 C          61.0495   88.8531    9.6381 C.ar    1  UNL1        0.1353
      8 N          59.8094   88.0683    9.3275 N.ar    1  UNL1       -0.2279
      9 C          59.2654   88.5597    8.0189 C.ar    1  UNL1        0.1171
     10 C          60.1692   89.6482    7.5206 C.ar    1  UNL1        0.0769
     11 N          61.2718   89.8295    8.5213 N.ar    1  UNL1       -0.3394
     12 H          62.0115   90.4759    8.4565 H       1  UNL1        0.1671
     13 C          62.0679   86.0218   10.9015 C.2     1  UNL1        0.2439
     14 O          61.2106   85.8715    9.6798 O.2     1  UNL1       -0.2731
     15 N          62.3833   87.3886   11.4328 N.am    1  UNL1       -0.2730
     16 C          63.2222   87.6941   12.6382 C.3     1  UNL1        0.0939
     17 C          63.2725   89.1842   12.8025 C.3     1  UNL1        0.0237
     18 C          62.4647   89.7997   11.6986 C.3     1  UNL1        0.0293
     19 C          61.9152   88.6900   10.8521 C.3     1  UNL1        0.1319
     20 C          62.6098   84.8054   11.5919 C.3     1  UNL1        0.1512
     21 C          63.2650   84.4897   14.0861 C.2     1  UNL1        0.4021
     22 O          64.6998   84.7612   13.7435 O.2     1  UNL1       -0.2264
     23 N          62.2199   84.5118   13.0102 N.am    1  UNL1       -0.2640
     24 H          61.2781   84.3335   13.2351 H       1  UNL1        0.1532
     25 C          62.3003   85.2824   16.3645 C.3     1  UNL1        0.2573
     26 O          62.8750   84.1960   15.5044 O.3     1  UNL1       -0.4306
     27 C          63.5416   83.8825   10.8638 C.3     1  UNL1        0.0270
     28 C          63.6281   83.9316    9.3671 C.3     1  UNL1        0.0022
     29 C          64.3870   82.9105   11.6324 C.3     1  UNL1        0.0022
     30 C          59.4926   92.7352    2.4203 C.ar    1  UNL1        0.0000
     31 C          58.6265   92.1907    1.3234 C.ar    1  UNL1        0.0000
     32 C          58.4573   92.9625    0.0483 C.ar    1  UNL1        0.0015
     33 C          59.1545   94.2787   -0.1299 C.ar    1  UNL1        0.0172
     34 C          60.0207   94.8231    0.9672 C.ar    1  UNL1        0.0015
     35 C          60.1898   94.0513    2.2422 C.ar    1  UNL1        0.0000
     36 C          58.9854   95.0504   -1.4049 C.ar    1  UNL1        0.0769
     37 C          58.6094   96.4983   -1.5159 C.ar    1  UNL1        0.1171
     38 N          58.5543   96.8526   -2.9724 N.ar    1  UNL1       -0.2279
     39 C          58.8962   95.6235   -3.7616 C.ar    1  UNL1        0.1353
     40 N          59.1626   94.5098   -2.7928 N.ar    1  UNL1       -0.3394
     41 H          59.4103   93.5862   -3.0268 H       1  UNL1        0.1671
     42 C          58.9603   95.5255   -5.2570 C.3     1  UNL1        0.1319
     43 C          60.0218   96.1195   -6.1348 C.3     1  UNL1        0.0293
     44 C          59.6918   95.7774   -7.5575 C.3     1  UNL1        0.0237
     45 C          58.4263   94.9720   -7.5590 C.3     1  UNL1        0.0939
     46 N          57.9743   94.8164   -6.1373 N.am    1  UNL1       -0.2730
     47 C          56.7510   94.0808   -5.6766 C.2     1  UNL1        0.2439
     48 O          56.4251   94.0092   -4.2142 O.2     1  UNL1       -0.2731
     49 C          55.8534   93.4166   -6.6784 C.3     1  UNL1        0.1512
     50 N          54.8497   94.2295   -7.4410 N.am    1  UNL1       -0.2640
     51 C          54.2063   95.4222   -6.7979 C.2     1  UNL1        0.4021
     52 O          54.5666   95.8019   -5.3922 O.2     1  UNL1       -0.2264
     53 H          54.6133   93.9803   -8.3636 H       1  UNL1        0.1532
     54 O          53.2025   96.2352   -7.5605 O.3     1  UNL1       -0.4306
     55 C          51.7354   96.0186   -7.3356 C.3     1  UNL1        0.2573
     56 C          55.9597   91.9397   -6.9175 C.3     1  UNL1        0.0270
     57 C          57.2665   91.3415   -7.3466 C.3     1  UNL1        0.0022
     58 C          54.7590   91.0608   -6.7275 C.3     1  UNL1        0.0022
@<TRIPOS>BOND
     1    25    26    1
     2    26    21    1
     3    21    22    2
     4    21    23   am
     5    20    23    1
     6    20    13    1
     7    13    14    2
     8    13    15   am
     9    15    16    1
    10    16    17    1
    11    17    18    1
    12    18    19    1
    13    19     7    1
    14     7     8   ar
    15     8     9   ar
    16     9    10   ar
    17    10     1    1
    18     1     2   ar
    19     2     3   ar
    20     3     4   ar
    21     4    30    1
    22    30    31   ar
    23    31    32   ar
    24    32    33   ar
    25    33    36    1
    26    36    37   ar
    27    37    38   ar
    28    38    39   ar
    29    42    39    1
    30    42    43    1
    31    43    44    1
    32    44    45    1
    33    45    46    1
    34    46    47   am
    35    47    48    2
    36    47    49    1
    37    49    50    1
    38    50    51   am
    39    51    52    2
    40    51    54    1
    41    54    55    1
    42    49    56    1
    43    56    57    1
    44    56    58    1
    45    39    40   ar
    46    33    34   ar
    47    34    35   ar
    48     4     5   ar
    49     5     6   ar
    50    10    11   ar
    51    20    27    1
    52    27    28    1
    53    27    29    1
    54    19    15    1
    55    11     7   ar
    56     6     1   ar
    57    35    30   ar
    58    40    36   ar
    59    46    42    1
    60    23    24    1
    61    50    53    1
    62    40    41    1
    63    11    12    1
@<TRIPOS>MOLECULE
*****
 58 63 0 0 0
SMALL
GASTEIGER

@<TRIPOS>ATOM
      1 C          60.8907   88.8376    8.5158 C.ar    1  UNL1        0.0172
      2 C          61.7777   90.0210    8.2655 C.ar    1  UNL1        0.0015
      3 C          61.5899   90.8512    7.0304 C.ar    1  UNL1        0.0000
      4 C          60.5150   90.4980    6.0456 C.ar    1  UNL1        0.0000
      5 C          59.6279   89.3146    6.2959 C.ar    1  UNL1        0.0000
      6 C          59.8158   88.4844    7.5310 C.ar    1  UNL1        0.0015
      7 C          62.0706   86.9834   11.7151 C.ar    1  UNL1        0.1353
      8 N          60.6647   86.4762   11.5880 N.ar    1  UNL1       -0.2279
      9 C          60.0516   87.1090   10.3740 C.ar    1  UNL1        0.1171
     10 C          61.0785   88.0074    9.7509 C.ar    1  UNL1        0.0769
     11 N          62.3264   87.9297   10.5798 N.ar    1  UNL1       -0.3394
     12 H          63.1658   88.4148   10.4086 H       1  UNL1        0.1671
     13 C          63.5854   89.0522   13.7337 C.2     1  UNL1        0.2439
     14 O          62.6596   89.7184   12.7595 O.2     1  UNL1       -0.2731
     15 N          63.7452   87.5609   13.7169 N.am    1  UNL1       -0.2730
     16 C          64.6294   86.7586   14.6249 C.3     1  UNL1        0.0939
     17 C          64.4795   85.3118   14.2583 C.3     1  UNL1        0.0237
     18 C          63.5027   85.2200   13.1237 C.3     1  UNL1        0.0293
     19 C          63.0489   86.6099   12.7890 C.3     1  UNL1        0.1319
     20 C          64.3515   89.8774   14.7248 C.3     1  UNL1        0.1512
     21 C          65.8721   91.6241   13.5471 C.2     1  UNL1        0.4021
     22 O          64.6559   92.3547   13.0603 O.2     1  UNL1       -0.2264
     23 N          65.7199   90.3854   14.3794 N.am    1  UNL1       -0.2640
     24 H          66.5181   89.9059   14.6989 H       1  UNL1        0.1532
     25 C          68.2328   92.4141   14.2908 C.3     1  UNL1        0.2573
     26 O          67.2405   92.1320   13.2018 O.3     1  UNL1       -0.4306
     27 C          63.7490   90.1946   16.0614 C.3     1  UNL1        0.0270
     28 C          63.0110   89.1333   16.8223 C.3     1  UNL1        0.0022
     29 C          63.8846   91.5731   16.6372 C.3     1  UNL1        0.0022
     30 C          60.3271   91.3282    4.8105 C.ar    1  UNL1        0.0000
     31 C          61.4935   91.6067    3.9095 C.ar    1  UNL1        0.0000
     32 C          61.3057   92.4369    2.6743 C.ar    1  UNL1        0.0015
     33 C          59.9514   92.9887    2.3403 C.ar    1  UNL1        0.0172
     34 C          58.7850   92.7101    3.2414 C.ar    1  UNL1        0.0015
     35 C          58.9729   91.8799    4.4765 C.ar    1  UNL1        0.0000
     36 C          59.7636   93.8189    1.1052 C.ar    1  UNL1        0.0769
     37 C          59.3812   95.2688    1.0673 C.ar    1  UNL1        0.1171
     38 N          59.3064   95.6910   -0.3702 N.ar    1  UNL1       -0.2279
     39 C          59.6425   94.5019   -1.2206 C.ar    1  UNL1        0.1353
     40 N          59.9251   93.3449   -0.3087 N.ar    1  UNL1       -0.3394
     41 H          60.1730   92.4343   -0.5890 H       1  UNL1        0.1671
     42 C          59.6881   94.4746   -2.7196 C.3     1  UNL1        0.1319
     43 C          60.9278   94.4654   -3.5640 C.3     1  UNL1        0.0293
     44 C          60.5079   94.4369   -5.0037 C.3     1  UNL1        0.0237
     45 C          59.0086   94.4285   -5.0492 C.3     1  UNL1        0.0939
     46 N          58.5020   94.4518   -3.6375 N.am    1  UNL1       -0.2730
     47 C          57.0620   94.4523   -3.2175 C.2     1  UNL1        0.2439
     48 O          56.7057   94.4772   -1.7606 O.2     1  UNL1       -0.2731
     49 C          55.9783   94.4279   -4.2544 C.3     1  UNL1        0.1512
     50 N          55.9783   93.3666   -5.3143 N.am    1  UNL1       -0.2640
     51 C          55.9941   91.9180   -4.9252 C.2     1  UNL1        0.4021
     52 O          56.0099   91.5308   -3.4762 O.2     1  UNL1       -0.2264
     53 H          55.9679   93.6207   -6.2654 H       1  UNL1        0.1532
     54 O          55.9942   90.8566   -5.9852 O.3     1  UNL1       -0.4306
     55 C          54.8829   90.8013   -6.9912 C.3     1  UNL1        0.2573
     56 C          54.8946   95.4647   -4.2312 C.3     1  UNL1        0.0270
     57 C          54.0656   95.6557   -2.9959 C.3     1  UNL1        0.0022
     58 C          54.6399   96.3106   -5.4435 C.3     1  UNL1        0.0022
@<TRIPOS>BOND
     1    25    26    1
     2    26    21    1
     3    21    22    2
     4    21    23   am
     5    20    23    1
     6    20    13    1
     7    13    14    2
     8    13    15   am
     9    15    16    1
    10    16    17    1
    11    17    18    1
    12    18    19    1
    13    19     7    1
    14     7     8   ar
    15     8     9   ar
    16     9    10   ar
    17    10     1    1
    18     1     2   ar
    19     2     3   ar
    20     3     4   ar
    21     4    30    1
    22    30    31   ar
    23    31    32   ar
    24    32    33   ar
    25    33    36    1
    26    36    37   ar
    27    37    38   ar
    28    38    39   ar
    29    42    39    1
    30    42    43    1
    31    43    44    1
    32    44    45    1
    33    45    46    1
    34    46    47   am
    35    47    48    2
    36    47    49    1
    37    49    50    1
    38    50    51   am
    39    51    52    2
    40    51    54    1
    41    54    55    1
    42    49    56    1
    43    56    57    1
    44    56    58    1
    45    39    40   ar
    46    33    34   ar
    47    34    35   ar
    48     4     5   ar
    49     5     6   ar
    50    10    11   ar
    51    20    27    1
    52    27    28    1
    53    27    29    1
    54    19    15    1
    55    11     7   ar
    56     6     1   ar
    57    35    30   ar
    58    40    36   ar
    59    46    42    1
    60    23    24    1
    61    50    53    1
    62    40    41    1
    63    11    12    1
