@<TRIPOS>MOLECULE
*****
 12 12 0 0 0
SMALL
GASTEIGER

@<TRIPOS>ATOM
      1 C          60.6361   86.5337    9.2004 C.1     1  UNL1       -0.0689
      2 C          61.5924   85.7262   10.0271 C.1     1  UNL1       -0.0614
      3 C          62.5488   84.9188   10.8538 C.ar    1  UNL1        0.0608
      4 C          63.4426   83.9101   10.1954 C.ar    1  UNL1        0.0114
      5 C          64.3990   83.1027   11.0221 C.ar    1  UNL1        0.0213
      6 C          64.4615   83.3040   12.5072 C.ar    1  UNL1        0.0989
      7 N          63.5677   84.3127   13.1655 N.ar    1  UNL1       -0.2417
      8 C          62.6114   85.1201   12.3388 C.ar    1  UNL1        0.1071
      9 N          58.4384   86.7024    7.8251 N.3     1  UNL1       -0.3102
     10 C          59.6797   87.3411    8.3737 C.3     1  UNL1        0.1432
     11 H          57.9085   87.3918    7.2918 H       1  UNL1        0.1198
     12 H          57.8662   86.3549    8.5946 H       1  UNL1        0.1198
@<TRIPOS>BOND
     1     9    10    1
     2    10     1    1
     3     1     2    3
     4     2     3    1
     5     3     4   ar
     6     4     5   ar
     7     5     6   ar
     8     6     7   ar
     9     7     8   ar
    10     8     3   ar
    11     9    11    1
    12     9    12    1
@<TRIPOS>MOLECULE
*****
 12 12 0 0 0
SMALL
GASTEIGER

@<TRIPOS>ATOM
      1 C          60.6585   86.4828    9.2269 C.1     1  UNL1       -0.0689
      2 C          61.6487   85.6347    9.9686 C.1     1  UNL1       -0.0614
      3 C          62.6388   84.7865   10.7103 C.ar    1  UNL1        0.0608
      4 C          62.6798   84.8188   12.2094 C.ar    1  UNL1        0.0114
      5 C          63.6700   83.9706   12.9511 C.ar    1  UNL1        0.0213
      6 C          64.6192   83.0901   12.1937 C.ar    1  UNL1        0.0989
      7 N          64.5782   83.0578   10.6946 N.ar    1  UNL1       -0.2417
      8 C          63.5880   83.9059    9.9529 C.ar    1  UNL1        0.1071
      9 N          58.4807   86.6946    7.8261 N.3     1  UNL1       -0.3102
     10 C          59.6683   87.3310    8.4852 C.3     1  UNL1        0.1432
     11 H          57.9181   87.4138    7.3716 H       1  UNL1        0.1198
     12 H          57.9175   86.2161    8.5292 H       1  UNL1        0.1198
@<TRIPOS>BOND
     1     9    10    1
     2    10     1    1
     3     1     2    3
     4     2     3    1
     5     3     4   ar
     6     4     5   ar
     7     5     6   ar
     8     6     7   ar
     9     7     8   ar
    10     8     3   ar
    11     9    11    1
    12     9    12    1
@<TRIPOS>MOLECULE
*****
 12 12 0 0 0
SMALL
GASTEIGER

@<TRIPOS>ATOM
      1 C          63.4537   84.1380    9.8758 C.1     1  UNL1       -0.0689
      2 C          62.5800   85.3056    9.5245 C.1     1  UNL1       -0.0614
      3 C          61.7063   86.4732    9.1733 C.ar    1  UNL1        0.0608
      4 C          60.5623   86.2938    8.2198 C.ar    1  UNL1        0.0114
      5 C          59.6886   87.4614    7.8685 C.ar    1  UNL1        0.0213
      6 C          59.9589   88.8084    8.4707 C.ar    1  UNL1        0.0989
      7 N          61.1028   88.9877    9.4242 N.ar    1  UNL1       -0.2417
      8 C          61.9765   87.8201    9.7754 C.ar    1  UNL1        0.1071
      9 N          65.0127   82.9209   11.5604 N.3     1  UNL1       -0.3102
     10 C          64.3274   82.9705   10.2270 C.3     1  UNL1        0.1432
     11 H          65.5612   82.0636   11.6291 H       1  UNL1        0.1198
     12 H          64.3135   82.9376   12.3028 H       1  UNL1        0.1198
@<TRIPOS>BOND
     1     9    10    1
     2    10     1    1
     3     1     2    3
     4     2     3    1
     5     3     4   ar
     6     4     5   ar
     7     5     6   ar
     8     6     7   ar
     9     7     8   ar
    10     8     3   ar
    11     9    11    1
    12     9    12    1
@<TRIPOS>MOLECULE
*****
 12 12 0 0 0
SMALL
GASTEIGER

@<TRIPOS>ATOM
      1 C          63.4138   84.1612    9.8759 C.1     1  UNL1       -0.0689
      2 C          62.5724   85.3621    9.5601 C.1     1  UNL1       -0.0614
      3 C          61.7310   86.5630    9.2442 C.ar    1  UNL1        0.0608
      4 C          62.0664   87.8939    9.8493 C.ar    1  UNL1        0.0114
      5 C          61.2250   89.0949    9.5334 C.ar    1  UNL1        0.0213
      6 C          60.0481   88.9649    8.6126 C.ar    1  UNL1        0.0989
      7 N          59.7126   87.6340    8.0076 N.ar    1  UNL1       -0.2417
      8 C          60.5541   86.4330    8.3234 C.ar    1  UNL1        0.1071
      9 N          65.0343   82.9061   11.4724 N.3     1  UNL1       -0.3102
     10 C          64.2553   82.9602   10.1917 C.3     1  UNL1        0.1432
     11 H          65.5455   82.0248   11.5224 H       1  UNL1        0.1198
     12 H          64.3936   82.9729   12.2632 H       1  UNL1        0.1198
@<TRIPOS>BOND
     1     9    10    1
     2    10     1    1
     3     1     2    3
     4     2     3    1
     5     3     4   ar
     6     4     5   ar
     7     5     6   ar
     8     6     7   ar
     9     7     8   ar
    10     8     3   ar
    11     9    11    1
    12     9    12    1
@<TRIPOS>MOLECULE
*****
 12 12 0 0 0
SMALL
GASTEIGER

@<TRIPOS>ATOM
      1 C          60.0894   88.7165    8.5384 C.1     1  UNL1       -0.0689
      2 C          61.0494   89.3223    9.5189 C.1     1  UNL1       -0.0614
      3 C          62.0094   89.9281   10.4995 C.ar    1  UNL1        0.0608
      4 C          62.9922   90.9655   10.0436 C.ar    1  UNL1        0.0114
      5 C          63.9522   91.5713   11.0242 C.ar    1  UNL1        0.0213
      6 C          63.9294   91.1397   12.4605 C.ar    1  UNL1        0.0989
      7 N          62.9466   90.1023   12.9163 N.ar    1  UNL1       -0.2417
      8 C          61.9866   89.4965   11.9358 C.ar    1  UNL1        0.1071
      9 N          58.5101   86.7745    7.8424 N.3     1  UNL1       -0.3102
     10 C          59.1294   88.1107    7.5579 C.3     1  UNL1        0.1432
     11 H          57.8883   86.5178    7.0757 H       1  UNL1        0.1198
     12 H          57.9768   86.8248    8.7104 H       1  UNL1        0.1198
@<TRIPOS>BOND
     1     9    10    1
     2    10     1    1
     3     1     2    3
     4     2     3    1
     5     3     4   ar
     6     4     5   ar
     7     5     6   ar
     8     6     7   ar
     9     7     8   ar
    10     8     3   ar
    11     9    11    1
    12     9    12    1
@<TRIPOS>MOLECULE
*****
 12 12 0 0 0
SMALL
GASTEIGER

@<TRIPOS>ATOM
      1 C          60.9412   86.9767   11.1445 C.1     1  UNL1       -0.0689
      2 C          61.8196   85.7726   11.3134 C.1     1  UNL1       -0.0614
      3 C          62.6979   84.5684   11.4822 C.ar    1  UNL1        0.0608
      4 C          63.4191   83.9943   10.2989 C.ar    1  UNL1        0.0114
      5 C          64.2975   82.7901   10.4678 C.ar    1  UNL1        0.0213
      6 C          64.4546   82.1601   11.8199 C.ar    1  UNL1        0.0989
      7 N          63.7334   82.7342   13.0032 N.ar    1  UNL1       -0.2417
      8 C          62.8550   83.9383   12.8344 C.ar    1  UNL1        0.1071
      9 N          59.2251   88.6648   12.1219 N.3     1  UNL1       -0.3102
     10 C          60.0629   88.1809   10.9757 C.3     1  UNL1        0.1432
     11 H          58.6951   89.4868   11.8325 H       1  UNL1        0.1198
     12 H          59.8302   88.9091   12.9059 H       1  UNL1        0.1198
@<TRIPOS>BOND
     1     9    10    1
     2    10     1    1
     3     1     2    3
     4     2     3    1
     5     3     4   ar
     6     4     5   ar
     7     5     6   ar
     8     6     7   ar
     9     7     8   ar
    10     8     3   ar
    11     9    11    1
    12     9    12    1
@<TRIPOS>MOLECULE
*****
 12 12 0 0 0
SMALL
GASTEIGER

@<TRIPOS>ATOM
      1 C          63.1441   89.4203   12.3229 C.1     1  UNL1       -0.0689
      2 C          62.3424   88.8296   11.2011 C.1     1  UNL1       -0.0614
      3 C          61.5407   88.2389   10.0794 C.ar    1  UNL1        0.0608
      4 C          61.7405   86.8045    9.6890 C.ar    1  UNL1        0.0114
      5 C          60.9388   86.2138    8.5673 C.ar    1  UNL1        0.0213
      6 C          59.9372   87.0575    7.8359 C.ar    1  UNL1        0.0989
      7 N          59.7374   88.4919    8.2263 N.ar    1  UNL1       -0.2417
      8 C          60.5391   89.0826    9.3480 C.ar    1  UNL1        0.1071
      9 N          63.3476   91.0773   14.3136 N.3     1  UNL1       -0.3102
     10 C          63.9458   90.0110   13.4447 C.3     1  UNL1        0.1432
     11 H          64.0269   91.3616   15.0194 H       1  UNL1        0.1198
     12 H          62.5127   90.7131   14.7726 H       1  UNL1        0.1198
@<TRIPOS>BOND
     1     9    10    1
     2    10     1    1
     3     1     2    3
     4     2     3    1
     5     3     4   ar
     6     4     5   ar
     7     5     6   ar
     8     6     7   ar
     9     7     8   ar
    10     8     3   ar
    11     9    11    1
    12     9    12    1
@<TRIPOS>MOLECULE
*****
 12 12 0 0 0
SMALL
GASTEIGER

@<TRIPOS>ATOM
      1 C          62.2710   86.2179   11.4158 C.1     1  UNL1       -0.0689
      2 C          62.4788   84.8503   11.9958 C.1     1  UNL1       -0.0614
      3 C          62.6866   83.4827   12.5759 C.ar    1  UNL1        0.0608
      4 C          62.7113   82.2824   11.6766 C.ar    1  UNL1        0.0114
      5 C          62.9191   80.9148   12.2567 C.ar    1  UNL1        0.0213
      6 C          63.1022   80.7475   13.7360 C.ar    1  UNL1        0.0989
      7 N          63.0775   81.9477   14.6353 N.ar    1  UNL1       -0.2417
      8 C          62.8697   83.3153   14.0552 C.ar    1  UNL1        0.1071
      9 N          61.0572   88.5148   11.4476 N.3     1  UNL1       -0.3102
     10 C          62.0632   87.5855   10.8357 C.3     1  UNL1        0.1432
     11 H          61.0477   89.3939   10.9304 H       1  UNL1        0.1198
     12 H          61.3080   88.6949   12.4197 H       1  UNL1        0.1198
@<TRIPOS>BOND
     1     9    10    1
     2    10     1    1
     3     1     2    3
     4     2     3    1
     5     3     4   ar
     6     4     5   ar
     7     5     6   ar
     8     6     7   ar
     9     7     8   ar
    10     8     3   ar
    11     9    11    1
    12     9    12    1
@<TRIPOS>MOLECULE
*****
 12 12 0 0 0
SMALL
GASTEIGER

@<TRIPOS>ATOM
      1 C          63.2962   84.4092   13.4900 C.1     1  UNL1       -0.0689
      2 C          62.7551   84.9643   12.2058 C.1     1  UNL1       -0.0614
      3 C          62.2141   85.5193   10.9216 C.ar    1  UNL1        0.0608
      4 C          62.8227   85.1113    9.6128 C.ar    1  UNL1        0.0114
      5 C          62.2816   85.6663    8.3286 C.ar    1  UNL1        0.0213
      6 C          61.1319   86.6294    8.3532 C.ar    1  UNL1        0.0989
      7 N          60.5233   87.0374    9.6620 N.ar    1  UNL1       -0.2417
      8 C          61.0644   86.4824   10.9462 C.ar    1  UNL1        0.1071
      9 N          63.1370   82.7143   15.4526 N.3     1  UNL1       -0.3102
     10 C          63.8372   83.8542   14.7742 C.3     1  UNL1        0.1432
     11 H          63.6380   82.4669   16.3060 H       1  UNL1        0.1198
     12 H          63.1131   81.9091   14.8269 H       1  UNL1        0.1198
@<TRIPOS>BOND
     1     9    10    1
     2    10     1    1
     3     1     2    3
     4     2     3    1
     5     3     4   ar
     6     4     5   ar
     7     5     6   ar
     8     6     7   ar
     9     7     8   ar
    10     8     3   ar
    11     9    11    1
    12     9    12    1
