@<TRIPOS>MOLECULE
*****
 33 37 0 0 0
SMALL
GASTEIGER

@<TRIPOS>ATOM
      1 C          63.5035   89.5108   12.7082 C.3     1  UNL1        0.0920
      2 C          63.3395   90.8660   12.0865 C.3     1  UNL1        0.0429
      3 C          62.3134   90.7555   10.9979 C.3     1  UNL1        0.0985
      4 N          61.8434   89.3320   10.9468 N.am    1  UNL1       -0.2443
      5 C          60.8178   88.7754   10.0042 C.2     1  UNL1        0.4048
      6 O          60.1630   89.6707    8.9944 O.2     1  UNL1       -0.2262
      7 C          62.5789   88.5626   12.0038 C.3     1  UNL1        0.1162
      8 N          64.4296   89.1645   13.8362 N.pl3   1  UNL1       -0.3175
      9 H          65.3460   89.5242   13.8488 H       1  UNL1        0.1482
     10 C          63.4645   88.8654   16.2297 C.ar    1  UNL1        0.0997
     11 C          62.9945   87.9712   17.3384 C.ar    1  UNL1        0.0147
     12 C          63.0194   86.4817   17.1623 C.ar    1  UNL1        0.0215
     13 C          63.5145   85.8865   15.8775 C.ar    1  UNL1        0.1003
     14 N          63.9846   86.7808   14.7688 N.ar    1  UNL1       -0.2287
     15 C          63.9596   88.2702   14.9449 C.ar    1  UNL1        0.1381
     16 N          63.4146   91.8442   16.5818 N.1     1  UNL1       -0.1907
     17 C          63.4395   90.3548   16.4058 C.1     1  UNL1        0.1032
     18 O          60.4472   87.3235   10.0713 O.3     1  UNL1       -0.4383
     19 C          61.4834   86.2718    9.8063 C.3     1  UNL1        0.1702
     20 C          62.0580   85.4814   10.9443 C.3     1  UNL1        0.0407
     21 C          62.5197   85.2202    9.5413 C.3     1  UNL1        0.0036
     22 C          63.5559   84.1685    9.2764 C.3     1  UNL1        0.0007
     23 C          62.9814   84.9589    8.1383 C.3     1  UNL1        0.0036
     24 C          61.9452   86.0105    8.4032 C.3     1  UNL1        0.0407
     25 C          63.6036   83.9449   10.3504 C.3     1  UNL1        0.0122
     26 C          63.6687   83.6394   11.8175 C.3     1  UNL1        0.0688
     27 C          64.1305   83.3782   10.4145 C.3     1  UNL1        0.0086
     28 C          62.6325   84.6910   12.0824 C.3     1  UNL1        0.0122
     29 C          64.2433   82.8490   12.9556 C.2     1  UNL1        0.2184
     30 N          65.1134   83.5243   13.9738 N.am    1  UNL1       -0.3288
     31 O          63.9477   81.3834   13.0754 O.2     1  UNL1       -0.2754
     32 H          65.3074   84.4863   13.8951 H       1  UNL1        0.1449
     33 H          65.4905   83.0056   14.7207 H       1  UNL1        0.1449
@<TRIPOS>BOND
     1    16    17    3
     2    17    10    1
     3    10    11   ar
     4    11    12   ar
     5    12    13   ar
     6    13    14   ar
     7    14    15   ar
     8    15     8    1
     9     1     8    1
    10     1     2    1
    11     2     3    1
    12     3     4    1
    13     4     5   am
    14     5     6    2
    15     5    18    1
    16    19    18    1
    17    19    20    1
    18    20    21    1
    19    21    22    1
    20    22    23    1
    21    23    24    1
    22    24    25    1
    23    25    26    1
    24    26    29    1
    25    29    30   am
    26    29    31    2
    27    26    27    1
    28    26    28    1
    29     4     7    1
    30    15    10   ar
    31     7     1    1
    32    24    19    1
    33    28    20    1
    34    27    22    1
    35     8     9    1
    36    30    32    1
    37    30    33    1
@<TRIPOS>MOLECULE
*****
 33 37 0 0 0
SMALL
GASTEIGER

@<TRIPOS>ATOM
      1 C          62.9348   85.1140   11.6136 C.3     1  UNL1        0.0920
      2 C          62.2165   84.8763   10.3184 C.3     1  UNL1        0.0429
      3 C          61.5201   86.1481    9.9344 C.3     1  UNL1        0.0985
      4 N          61.8079   87.1719   10.9922 N.am    1  UNL1       -0.2443
      5 C          61.3090   88.5864   11.0093 C.2     1  UNL1        0.4048
      6 O          60.4375   89.0878    9.8961 O.2     1  UNL1       -0.2262
      7 C          62.6823   86.5329   12.0301 C.3     1  UNL1        0.1162
      8 N          63.7606   84.1095   12.3612 N.pl3   1  UNL1       -0.3175
      9 H          64.6907   84.3207   12.6053 H       1  UNL1        0.1482
     10 C          62.4171   82.6351   14.0259 C.ar    1  UNL1        0.0997
     11 C          61.8259   81.3088   14.4014 C.ar    1  UNL1        0.0147
     12 C          61.9870   80.1301   13.4876 C.ar    1  UNL1        0.0215
     13 C          62.7393   80.2780   12.1983 C.ar    1  UNL1        0.1003
     14 N          63.3306   81.6044   11.8228 N.ar    1  UNL1       -0.2287
     15 C          63.1694   82.7830   12.7367 C.ar    1  UNL1        0.1381
     16 N          62.0949   84.9924   15.8533 N.1     1  UNL1       -0.1907
     17 C          62.2560   83.8138   14.9396 C.1     1  UNL1        0.1032
     18 O          61.6816   89.4995   12.1394 O.3     1  UNL1       -0.4383
     19 C          62.8567   90.4218   12.0023 C.3     1  UNL1        0.1702
     20 C          63.7311   90.7038   13.1880 C.3     1  UNL1        0.0407
     21 C          64.0318   91.3440   11.8653 C.3     1  UNL1        0.0036
     22 C          65.2068   92.2661   11.7283 C.3     1  UNL1        0.0007
     23 C          64.3324   91.9841   10.5425 C.3     1  UNL1        0.0036
     24 C          63.1574   91.0620   10.6796 C.3     1  UNL1        0.0407
     25 C          65.4494   92.1147   12.7885 C.3     1  UNL1        0.0122
     26 C          65.7806   91.9079   14.2367 C.3     1  UNL1        0.0688
     27 C          66.0812   92.5481   12.9140 C.3     1  UNL1        0.0086
     28 C          64.6055   90.9857   14.3738 C.3     1  UNL1        0.0122
     29 C          66.6550   92.1899   15.4224 C.2     1  UNL1        0.2184
     30 N          66.1403   93.0349   16.5498 N.am    1  UNL1       -0.3288
     31 O          68.0440   91.6268   15.4808 O.2     1  UNL1       -0.2754
     32 H          65.2286   93.4045   16.5115 H       1  UNL1        0.1449
     33 H          66.7142   93.2200   17.3280 H       1  UNL1        0.1449
@<TRIPOS>BOND
     1    16    17    3
     2    17    10    1
     3    10    11   ar
     4    11    12   ar
     5    12    13   ar
     6    13    14   ar
     7    14    15   ar
     8    15     8    1
     9     1     8    1
    10     1     2    1
    11     2     3    1
    12     3     4    1
    13     4     5   am
    14     5     6    2
    15     5    18    1
    16    19    18    1
    17    19    20    1
    18    20    21    1
    19    21    22    1
    20    22    23    1
    21    23    24    1
    22    24    25    1
    23    25    26    1
    24    26    29    1
    25    29    30   am
    26    29    31    2
    27    26    27    1
    28    26    28    1
    29     4     7    1
    30    15    10   ar
    31     7     1    1
    32    24    19    1
    33    28    20    1
    34    27    22    1
    35     8     9    1
    36    30    32    1
    37    30    33    1
@<TRIPOS>MOLECULE
*****
 33 37 0 0 0
SMALL
GASTEIGER

@<TRIPOS>ATOM
      1 C          63.2020   85.1719   11.7078 C.3     1  UNL1        0.0920
      2 C          62.8162   85.0107   10.2672 C.3     1  UNL1        0.0429
      3 C          62.1362   86.2726    9.8254 C.3     1  UNL1        0.0985
      4 N          62.1017   87.2137   10.9929 N.am    1  UNL1       -0.2443
      5 C          61.5120   88.5930   10.9965 C.2     1  UNL1        0.4048
      6 O          60.8831   89.1429    9.7507 O.2     1  UNL1       -0.2262
      7 C          62.7603   86.5335   12.1563 C.3     1  UNL1        0.1162
      8 N          63.9058   84.1509   12.5517 N.pl3   1  UNL1       -0.3175
      9 H          64.8058   84.3389   12.9036 H       1  UNL1        0.1482
     10 C          62.4174   82.6952   14.1061 C.ar    1  UNL1        0.0997
     11 C          61.7500   81.3877   14.4137 C.ar    1  UNL1        0.0147
     12 C          61.9034   80.2281   13.4746 C.ar    1  UNL1        0.0215
     13 C          62.7243   80.3761   12.2279 C.ar    1  UNL1        0.1003
     14 N          63.3918   81.6837   11.9203 N.ar    1  UNL1       -0.2287
     15 C          63.2383   82.8432   12.8594 C.ar    1  UNL1        0.1381
     16 N          62.1107   85.0145   15.9841 N.1     1  UNL1       -0.1907
     17 C          62.2640   83.8548   15.0451 C.1     1  UNL1        0.1032
     18 O          61.5512   89.4222   12.2458 O.3     1  UNL1       -0.4383
     19 C          62.8232   90.1049   12.6532 C.3     1  UNL1        0.1702
     20 C          63.5115   91.0381   11.7017 C.3     1  UNL1        0.0407
     21 C          64.0952   90.7876   13.0606 C.3     1  UNL1        0.0036
     22 C          65.3671   91.4704   13.4680 C.3     1  UNL1        0.0007
     23 C          64.6788   90.5372   14.4195 C.3     1  UNL1        0.0036
     24 C          63.4068   89.8545   14.0121 C.3     1  UNL1        0.0407
     25 C          65.4114   91.9707   12.4915 C.3     1  UNL1        0.0122
     26 C          65.4718   92.6540   11.1576 C.3     1  UNL1        0.0688
     27 C          66.0554   92.4036   12.5165 C.3     1  UNL1        0.0086
     28 C          64.1999   91.9713   10.7502 C.3     1  UNL1        0.0122
     29 C          66.1601   93.5872   10.2061 C.2     1  UNL1        0.2184
     30 N          65.6021   94.9585    9.9649 N.am    1  UNL1       -0.3288
     31 O          67.4065   93.1492    9.4957 O.2     1  UNL1       -0.2754
     32 H          64.7840   95.2460   10.4311 H       1  UNL1        0.1449
     33 H          66.0539   95.5709    9.3404 H       1  UNL1        0.1449
@<TRIPOS>BOND
     1    16    17    3
     2    17    10    1
     3    10    11   ar
     4    11    12   ar
     5    12    13   ar
     6    13    14   ar
     7    14    15   ar
     8    15     8    1
     9     1     8    1
    10     1     2    1
    11     2     3    1
    12     3     4    1
    13     4     5   am
    14     5     6    2
    15     5    18    1
    16    19    18    1
    17    19    20    1
    18    20    21    1
    19    21    22    1
    20    22    23    1
    21    23    24    1
    22    24    25    1
    23    25    26    1
    24    26    29    1
    25    29    30   am
    26    29    31    2
    27    26    27    1
    28    26    28    1
    29     4     7    1
    30    15    10   ar
    31     7     1    1
    32    24    19    1
    33    28    20    1
    34    27    22    1
    35     8     9    1
    36    30    32    1
    37    30    33    1
@<TRIPOS>MOLECULE
*****
 33 37 0 0 0
SMALL
GASTEIGER

@<TRIPOS>ATOM
      1 C          62.0949   85.7401   10.4448 C.3     1  UNL1        0.0920
      2 C          61.1753   85.9279    9.2747 C.3     1  UNL1        0.0429
      3 C          60.6786   87.3431    9.2978 C.3     1  UNL1        0.0985
      4 N          61.2913   88.0300   10.4822 N.am    1  UNL1       -0.2443
      5 C          61.0679   89.4570   10.8868 C.2     1  UNL1        0.4048
      6 O          60.1598   90.3331   10.0757 O.2     1  UNL1       -0.2262
      7 C          62.1666   87.0393   11.1911 C.3     1  UNL1        0.1162
      8 N          62.8162   84.4753   10.8053 N.pl3   1  UNL1       -0.3175
      9 H          63.3378   83.9944   10.1227 H       1  UNL1        0.1482
     10 C          62.8333   82.4663   12.4526 C.ar    1  UNL1        0.0997
     11 C          62.7598   81.9340   13.8530 C.ar    1  UNL1        0.0147
     12 C          62.5955   82.8786   15.0066 C.ar    1  UNL1        0.0215
     13 C          62.5047   84.3554   14.7598 C.ar    1  UNL1        0.1003
     14 N          62.5783   84.8876   13.3593 N.ar    1  UNL1       -0.2287
     15 C          62.7426   83.9430   12.2057 C.ar    1  UNL1        0.1381
     16 N          63.1619   80.5773   10.1453 N.1     1  UNL1       -0.1907
     17 C          62.9976   81.5218   11.2989 C.1     1  UNL1        0.1032
     18 O          61.7526   90.0080   12.1024 O.3     1  UNL1       -0.4383
     19 C          63.0197   90.7974   11.9564 C.3     1  UNL1        0.1702
     20 C          63.9351   90.9706   13.1320 C.3     1  UNL1        0.0407
     21 C          64.2868   91.5868   11.8104 C.3     1  UNL1        0.0036
     22 C          65.5539   92.3761   11.6645 C.3     1  UNL1        0.0007
     23 C          64.6385   92.2029   10.4889 C.3     1  UNL1        0.0036
     24 C          63.3714   91.4136   10.6348 C.3     1  UNL1        0.0407
     25 C          65.7921   92.1889   12.7200 C.3     1  UNL1        0.0122
     26 C          66.1175   91.9331   14.1617 C.3     1  UNL1        0.0688
     27 C          66.4692   92.5493   12.8401 C.3     1  UNL1        0.0086
     28 C          64.8505   91.1437   14.3076 C.3     1  UNL1        0.0122
     29 C          67.0329   92.1063   15.3373 C.2     1  UNL1        0.2184
     30 N          68.4193   91.5350   15.2989 N.am    1  UNL1       -0.3288
     31 O          66.5619   92.8507   16.5513 O.2     1  UNL1       -0.2754
     32 H          68.7285   91.0464   14.5021 H       1  UNL1        0.1449
     33 H          69.0201   91.6487   16.0705 H       1  UNL1        0.1449
@<TRIPOS>BOND
     1    16    17    3
     2    17    10    1
     3    10    11   ar
     4    11    12   ar
     5    12    13   ar
     6    13    14   ar
     7    14    15   ar
     8    15     8    1
     9     1     8    1
    10     1     2    1
    11     2     3    1
    12     3     4    1
    13     4     5   am
    14     5     6    2
    15     5    18    1
    16    19    18    1
    17    19    20    1
    18    20    21    1
    19    21    22    1
    20    22    23    1
    21    23    24    1
    22    24    25    1
    23    25    26    1
    24    26    29    1
    25    29    30   am
    26    29    31    2
    27    26    27    1
    28    26    28    1
    29     4     7    1
    30    15    10   ar
    31     7     1    1
    32    24    19    1
    33    28    20    1
    34    27    22    1
    35     8     9    1
    36    30    32    1
    37    30    33    1
@<TRIPOS>MOLECULE
*****
 33 37 0 0 0
SMALL
GASTEIGER

@<TRIPOS>ATOM
      1 C          61.6947   90.0284   10.6046 C.3     1  UNL1        0.0920
      2 C          60.2197   89.9984   10.3330 C.3     1  UNL1        0.0429
      3 C          59.9034   88.7102    9.6327 C.3     1  UNL1        0.0985
      4 N          61.1827   87.9440    9.4715 N.am    1  UNL1       -0.2443
      5 C          61.3293   86.5991    8.8233 C.2     1  UNL1        0.4048
      6 O          60.1253   85.9008    8.2641 O.2     1  UNL1       -0.2262
      7 C          62.2899   88.7585   10.0721 C.3     1  UNL1        0.1162
      8 N          62.4430   91.1339   11.2885 N.pl3   1  UNL1       -0.3175
      9 H          62.3784   92.0557   10.9488 H       1  UNL1        0.1482
     10 C          64.6143   91.5176   12.6627 C.ar    1  UNL1        0.0997
     11 C          65.4611   91.2187   13.8641 C.ar    1  UNL1        0.0147
     12 C          64.9833   90.2372   14.8930 C.ar    1  UNL1        0.0215
     13 C          63.6588   89.5546   14.7203 C.ar    1  UNL1        0.1003
     14 N          62.8120   89.8535   13.5188 N.ar    1  UNL1       -0.2287
     15 C          63.2898   90.8350   12.4900 C.ar    1  UNL1        0.1381
     16 N          65.5696   93.4805   10.6050 N.1     1  UNL1       -0.1907
     17 C          65.0920   92.4990   11.6338 C.1     1  UNL1        0.1032
     18 O          62.6799   85.9526    8.7345 O.3     1  UNL1       -0.4383
     19 C          63.0934   84.9356    9.7567 C.3     1  UNL1        0.1702
     20 C          62.9966   85.2591   11.2182 C.3     1  UNL1        0.0407
     21 C          63.5068   83.9187   10.7788 C.3     1  UNL1        0.0036
     22 C          63.9202   82.9018   11.8010 C.3     1  UNL1        0.0007
     23 C          64.0170   82.5784   10.3395 C.3     1  UNL1        0.0036
     24 C          63.6036   83.5953    9.3173 C.3     1  UNL1        0.0407
     25 C          63.6637   83.6050   12.6045 C.3     1  UNL1        0.0122
     26 C          63.3132   84.5656   13.7019 C.3     1  UNL1        0.0688
     27 C          63.8234   83.2253   13.2625 C.3     1  UNL1        0.0086
     28 C          62.8998   85.5825   12.6797 C.3     1  UNL1        0.0122
     29 C          63.2164   84.8891   15.1634 C.2     1  UNL1        0.2184
     30 N          64.4483   85.2676   15.9310 N.am    1  UNL1       -0.3288
     31 O          61.8878   84.8340   15.8573 O.2     1  UNL1       -0.2754
     32 H          65.3204   85.3037   15.4755 H       1  UNL1        0.1449
     33 H          64.3847   85.4798   16.8902 H       1  UNL1        0.1449
@<TRIPOS>BOND
     1    16    17    3
     2    17    10    1
     3    10    11   ar
     4    11    12   ar
     5    12    13   ar
     6    13    14   ar
     7    14    15   ar
     8    15     8    1
     9     1     8    1
    10     1     2    1
    11     2     3    1
    12     3     4    1
    13     4     5   am
    14     5     6    2
    15     5    18    1
    16    19    18    1
    17    19    20    1
    18    20    21    1
    19    21    22    1
    20    22    23    1
    21    23    24    1
    22    24    25    1
    23    25    26    1
    24    26    29    1
    25    29    30   am
    26    29    31    2
    27    26    27    1
    28    26    28    1
    29     4     7    1
    30    15    10   ar
    31     7     1    1
    32    24    19    1
    33    28    20    1
    34    27    22    1
    35     8     9    1
    36    30    32    1
    37    30    33    1
@<TRIPOS>MOLECULE
*****
 33 37 0 0 0
SMALL
GASTEIGER

@<TRIPOS>ATOM
      1 C          61.3515   89.1538   10.9155 C.3     1  UNL1        0.0920
      2 C          60.1066   89.1811   10.0790 C.3     1  UNL1        0.0429
      3 C          60.1732   88.0369    9.1113 C.3     1  UNL1        0.0985
      4 N          61.4591   87.3024    9.3497 N.am    1  UNL1       -0.2443
      5 C          61.9336   86.0904    8.6040 C.2     1  UNL1        0.4048
      6 O          61.0928   85.5081    7.5068 O.2     1  UNL1       -0.2262
      7 C          62.1874   87.9926   10.4647 C.3     1  UNL1        0.1162
      8 N          61.6994   90.1182   12.0104 N.pl3   1  UNL1       -0.3175
      9 H          61.0665   90.2745   12.7481 H       1  UNL1        0.1482
     10 C          63.8498   90.9287   13.2222 C.ar    1  UNL1        0.0997
     11 C          65.1619   91.6550   13.1931 C.ar    1  UNL1        0.0147
     12 C          65.6357   92.2971   11.9229 C.ar    1  UNL1        0.0215
     13 C          64.7973   92.2128   10.6819 C.ar    1  UNL1        0.1003
     14 N          63.4852   91.4865   10.7110 N.ar    1  UNL1       -0.2287
     15 C          63.0115   90.8445   11.9812 C.ar    1  UNL1        0.1381
     16 N          62.9022   89.6446   15.7625 N.1     1  UNL1       -0.1907
     17 C          63.3760   90.2866   14.4924 C.1     1  UNL1        0.1032
     18 O          63.2489   85.4608    8.9555 O.3     1  UNL1       -0.4383
     19 C          63.3290   84.4669   10.0762 C.3     1  UNL1        0.1702
     20 C          63.2404   84.9325   11.4993 C.3     1  UNL1        0.0407
     21 C          63.4090   83.4731   11.1968 C.3     1  UNL1        0.0036
     22 C          63.4891   82.4793   12.3175 C.3     1  UNL1        0.0007
     23 C          63.5777   82.0136   10.8943 C.3     1  UNL1        0.0036
     24 C          63.4976   83.0075    9.7737 C.3     1  UNL1        0.0407
     25 C          63.3804   83.2929   13.0469 C.3     1  UNL1        0.0122
     26 C          63.2320   84.4043   14.0431 C.3     1  UNL1        0.0688
     27 C          63.4006   82.9449   13.7406 C.3     1  UNL1        0.0086
     28 C          63.1519   85.3981   12.9225 C.3     1  UNL1        0.0122
     29 C          63.1434   84.8699   15.4663 C.2     1  UNL1        0.2184
     30 N          64.3875   85.2669   16.2043 N.am    1  UNL1       -0.3288
     31 O          61.8109   84.9386   16.1514 O.2     1  UNL1       -0.2754
     32 H          65.2621   85.2218   15.7546 H       1  UNL1        0.1449
     33 H          64.3294   85.5725   17.1384 H       1  UNL1        0.1449
@<TRIPOS>BOND
     1    16    17    3
     2    17    10    1
     3    10    11   ar
     4    11    12   ar
     5    12    13   ar
     6    13    14   ar
     7    14    15   ar
     8    15     8    1
     9     1     8    1
    10     1     2    1
    11     2     3    1
    12     3     4    1
    13     4     5   am
    14     5     6    2
    15     5    18    1
    16    19    18    1
    17    19    20    1
    18    20    21    1
    19    21    22    1
    20    22    23    1
    21    23    24    1
    22    24    25    1
    23    25    26    1
    24    26    29    1
    25    29    30   am
    26    29    31    2
    27    26    27    1
    28    26    28    1
    29     4     7    1
    30    15    10   ar
    31     7     1    1
    32    24    19    1
    33    28    20    1
    34    27    22    1
    35     8     9    1
    36    30    32    1
    37    30    33    1
@<TRIPOS>MOLECULE
*****
 33 37 0 0 0
SMALL
GASTEIGER

@<TRIPOS>ATOM
      1 C          63.4599   89.6623   12.3137 C.3     1  UNL1        0.0920
      2 C          63.2339   90.9779   11.6293 C.3     1  UNL1        0.0429
      3 C          62.1709   90.7828   10.5892 C.3     1  UNL1        0.0985
      4 N          61.7398   89.3467   10.6307 N.am    1  UNL1       -0.2443
      5 C          60.6954   88.7140    9.7593 C.2     1  UNL1        0.4048
      6 O          59.9776   89.5370    8.7311 O.2     1  UNL1       -0.2262
      7 C          62.5364   88.6541   11.6964 C.3     1  UNL1        0.1162
      8 N          64.4376   89.4009   13.4208 N.pl3   1  UNL1       -0.3175
      9 H          64.7731   88.4884   13.5759 H       1  UNL1        0.1482
     10 C          64.2266   90.7941   15.6036 C.ar    1  UNL1        0.0997
     11 C          64.6929   91.9228   16.4744 C.ar    1  UNL1        0.0147
     12 C          65.8369   92.7871   16.0332 C.ar    1  UNL1        0.0215
     13 C          66.5143   92.5227   14.7213 C.ar    1  UNL1        0.1003
     14 N          66.0478   91.3939   13.8504 N.ar    1  UNL1       -0.2287
     15 C          64.9040   90.5296   14.2916 C.ar    1  UNL1        0.1381
     16 N          61.9389   89.0654   16.4857 N.1     1  UNL1       -0.1907
     17 C          63.0827   89.9298   16.0446 C.1     1  UNL1        0.1032
     18 O          60.3690   87.2585    9.9164 O.3     1  UNL1       -0.4383
     19 C          61.4259   86.2222    9.6731 C.3     1  UNL1        0.1702
     20 C          61.9945   85.4463   10.8240 C.3     1  UNL1        0.0407
     21 C          62.4828   85.1860    9.4299 C.3     1  UNL1        0.0036
     22 C          63.5397   84.1498    9.1866 C.3     1  UNL1        0.0007
     23 C          62.9712   84.9258    8.0357 C.3     1  UNL1        0.0036
     24 C          61.9143   85.9620    8.2789 C.3     1  UNL1        0.0407
     25 C          63.5736   83.9318   10.2623 C.3     1  UNL1        0.0122
     26 C          63.6199   83.6341   11.7317 C.3     1  UNL1        0.0688
     27 C          64.1083   83.3739   10.3376 C.3     1  UNL1        0.0086
     28 C          62.5630   84.6703   11.9750 C.3     1  UNL1        0.0122
     29 C          64.1884   82.8582   12.8827 C.2     1  UNL1        0.2184
     30 N          65.0192   83.5547   13.9193 N.am    1  UNL1       -0.3288
     31 O          63.9262   81.3857   12.9969 O.2     1  UNL1       -0.2754
     32 H          65.1913   84.5211   13.8444 H       1  UNL1        0.1449
     33 H          65.3923   83.0454   14.6747 H       1  UNL1        0.1449
@<TRIPOS>BOND
     1    16    17    3
     2    17    10    1
     3    10    11   ar
     4    11    12   ar
     5    12    13   ar
     6    13    14   ar
     7    14    15   ar
     8    15     8    1
     9     1     8    1
    10     1     2    1
    11     2     3    1
    12     3     4    1
    13     4     5   am
    14     5     6    2
    15     5    18    1
    16    19    18    1
    17    19    20    1
    18    20    21    1
    19    21    22    1
    20    22    23    1
    21    23    24    1
    22    24    25    1
    23    25    26    1
    24    26    29    1
    25    29    30   am
    26    29    31    2
    27    26    27    1
    28    26    28    1
    29     4     7    1
    30    15    10   ar
    31     7     1    1
    32    24    19    1
    33    28    20    1
    34    27    22    1
    35     8     9    1
    36    30    32    1
    37    30    33    1
@<TRIPOS>MOLECULE
*****
 33 37 0 0 0
SMALL
GASTEIGER

@<TRIPOS>ATOM
      1 C          63.7983   87.8953   15.7786 C.3     1  UNL1        0.0920
      2 C          62.9520   87.3503   16.8907 C.3     1  UNL1        0.0429
      3 C          62.8871   85.8597   16.7361 C.3     1  UNL1        0.0985
      4 N          63.6932   85.4834   15.5284 N.am    1  UNL1       -0.2443
      5 C          63.9000   84.0931   15.0044 C.2     1  UNL1        0.4048
      6 O          63.2704   82.9261   15.7055 O.2     1  UNL1       -0.2262
      7 C          64.2565   86.7414   14.9366 C.3     1  UNL1        0.1162
      8 N          64.1286   89.3403   15.5488 N.pl3   1  UNL1       -0.3175
      9 H          64.4824   89.8877   16.2866 H       1  UNL1        0.1482
     10 C          64.8867   90.9740   13.6763 C.ar    1  UNL1        0.0997
     11 C          64.6779   91.5849   12.3225 C.ar    1  UNL1        0.0147
     12 C          63.5021   91.1731   11.4870 C.ar    1  UNL1        0.0215
     13 C          62.5351   90.1503   12.0056 C.ar    1  UNL1        0.1003
     14 N          62.7439   89.5394   13.3595 N.ar    1  UNL1       -0.2287
     15 C          63.9198   89.9513   14.1949 C.ar    1  UNL1        0.1381
     16 N          67.2383   91.7976   15.3472 N.1     1  UNL1       -0.1907
     17 C          66.0625   91.3858   14.5117 C.1     1  UNL1        0.1032
     18 O          64.7363   83.8700   13.7794 O.3     1  UNL1       -0.4383
     19 C          64.1369   84.0593   12.4174 C.3     1  UNL1        0.1702
     20 C          63.1391   85.1545   12.1827 C.3     1  UNL1        0.0407
     21 C          63.5375   84.2487   11.0554 C.3     1  UNL1        0.0036
     22 C          62.9382   84.4381    9.6935 C.3     1  UNL1        0.0007
     23 C          63.9359   83.3429    9.9282 C.3     1  UNL1        0.0036
     24 C          64.5353   83.1535   11.2901 C.3     1  UNL1        0.0407
     25 C          62.3481   85.2838   10.0708 C.3     1  UNL1        0.0122
     26 C          61.5420   86.4391   10.5861 C.3     1  UNL1        0.0688
     27 C          61.9404   85.5333    9.4589 C.3     1  UNL1        0.0086
     28 C          62.1414   86.2497   11.9480 C.3     1  UNL1        0.0122
     29 C          60.5443   87.5343   10.3515 C.2     1  UNL1        0.2184
     30 N          59.7081   88.0432   11.4880 N.am    1  UNL1       -0.3288
     31 O          60.3827   88.1205    8.9803 O.2     1  UNL1       -0.2754
     32 H          59.8142   87.6585   12.3880 H       1  UNL1        0.1449
     33 H          59.0533   88.7620   11.3340 H       1  UNL1        0.1449
@<TRIPOS>BOND
     1    16    17    3
     2    17    10    1
     3    10    11   ar
     4    11    12   ar
     5    12    13   ar
     6    13    14   ar
     7    14    15   ar
     8    15     8    1
     9     1     8    1
    10     1     2    1
    11     2     3    1
    12     3     4    1
    13     4     5   am
    14     5     6    2
    15     5    18    1
    16    19    18    1
    17    19    20    1
    18    20    21    1
    19    21    22    1
    20    22    23    1
    21    23    24    1
    22    24    25    1
    23    25    26    1
    24    26    29    1
    25    29    30   am
    26    29    31    2
    27    26    27    1
    28    26    28    1
    29     4     7    1
    30    15    10   ar
    31     7     1    1
    32    24    19    1
    33    28    20    1
    34    27    22    1
    35     8     9    1
    36    30    32    1
    37    30    33    1
@<TRIPOS>MOLECULE
*****
 33 37 0 0 0
SMALL
GASTEIGER

@<TRIPOS>ATOM
      1 C          64.1257   89.5269   15.0672 C.3     1  UNL1        0.0920
      2 C          63.0952   89.8302   16.1142 C.3     1  UNL1        0.0429
      3 C          62.7298   88.5427   16.7916 C.3     1  UNL1        0.0985
      4 N          63.5344   87.4437   16.1633 N.am    1  UNL1       -0.2443
      5 C          63.4851   85.9914   16.5354 C.2     1  UNL1        0.4048
      6 O          62.5680   85.5279   17.6282 O.2     1  UNL1       -0.2262
      7 C          64.3972   88.0519   15.0976 C.3     1  UNL1        0.1162
      8 N          64.7713   90.5236   14.1508 N.pl3   1  UNL1       -0.3175
      9 H          65.5583   91.0323   14.4528 H       1  UNL1        0.1482
     10 C          64.7232   91.8824   11.9370 C.ar    1  UNL1        0.0997
     11 C          64.1699   92.1040   10.5606 C.ar    1  UNL1        0.0147
     12 C          63.1112   91.1882   10.0214 C.ar    1  UNL1        0.0215
     13 C          62.6059   90.0509   10.8588 C.ar    1  UNL1        0.1003
     14 N          63.1593   89.8294   12.2353 N.ar    1  UNL1       -0.2287
     15 C          64.2179   90.7451   12.7743 C.ar    1  UNL1        0.1381
     16 N          66.8406   93.7139   13.0152 N.1     1  UNL1       -0.1907
     17 C          65.7819   92.7981   12.4761 C.1     1  UNL1        0.1032
     18 O          64.3528   85.0026   15.8148 O.3     1  UNL1       -0.4383
     19 C          63.8281   84.2849   14.6066 C.3     1  UNL1        0.1702
     20 C          63.4157   85.0630   13.3923 C.3     1  UNL1        0.0407
     21 C          63.3035   83.5673   13.3984 C.3     1  UNL1        0.0036
     22 C          62.7788   82.8497   12.1903 C.3     1  UNL1        0.0007
     23 C          63.1912   82.0715   13.4045 C.3     1  UNL1        0.0036
     24 C          63.7159   82.7892   14.6127 C.3     1  UNL1        0.0407
     25 C          62.6519   83.8107   11.6744 C.3     1  UNL1        0.0122
     26 C          62.4786   85.1235   10.9699 C.3     1  UNL1        0.0688
     27 C          62.3664   83.6278   10.9760 C.3     1  UNL1        0.0086
     28 C          63.0033   85.8412   12.1781 C.3     1  UNL1        0.0122
     29 C          62.0662   85.9017    9.7556 C.2     1  UNL1        0.2184
     30 N          60.8160   86.7299    9.7845 N.am    1  UNL1       -0.3288
     31 O          62.9040   85.8515    8.5125 O.2     1  UNL1       -0.2754
     32 H          60.2660   86.7628   10.6005 H       1  UNL1        0.1449
     33 H          60.5453   87.2406    8.9876 H       1  UNL1        0.1449
@<TRIPOS>BOND
     1    16    17    3
     2    17    10    1
     3    10    11   ar
     4    11    12   ar
     5    12    13   ar
     6    13    14   ar
     7    14    15   ar
     8    15     8    1
     9     1     8    1
    10     1     2    1
    11     2     3    1
    12     3     4    1
    13     4     5   am
    14     5     6    2
    15     5    18    1
    16    19    18    1
    17    19    20    1
    18    20    21    1
    19    21    22    1
    20    22    23    1
    21    23    24    1
    22    24    25    1
    23    25    26    1
    24    26    29    1
    25    29    30   am
    26    29    31    2
    27    26    27    1
    28    26    28    1
    29     4     7    1
    30    15    10   ar
    31     7     1    1
    32    24    19    1
    33    28    20    1
    34    27    22    1
    35     8     9    1
    36    30    32    1
    37    30    33    1
