@<TRIPOS>MOLECULE
*****
 30 33 0 0 0
SMALL
GASTEIGER

@<TRIPOS>ATOM
      1 C          64.0684   91.3073   13.6336 C.3     1  UNL1        0.0518
      2 C          63.8430   89.8398   13.4196 C.ar    1  UNL1        0.0563
      3 N          64.4219   88.8442   14.3807 N.ar    1  UNL1       -0.2524
      4 C          64.1965   87.3768   14.1668 C.ar    1  UNL1        0.0830
      5 C          63.3924   86.9049   12.9917 C.ar    1  UNL1        0.0686
      6 C          62.8135   87.9005   12.0306 C.ar    1  UNL1        0.0048
      7 C          63.0389   89.3680   12.2446 C.ar    1  UNL1        0.0072
      8 C          63.3379   85.4066   13.0389 C.2     1  UNL1        0.2505
      9 O          62.6362   84.5184   12.0546 O.2     1  UNL1       -0.2699
     10 N          64.1085   84.9525   14.2430 N.am    1  UNL1       -0.2690
     11 C          64.6391   86.1701   14.9401 C.3     1  UNL1        0.1397
     12 C          62.0093   87.4287   10.8556 C.ar    1  UNL1        0.0106
     13 C          62.6861   86.7216    9.7190 C.ar    1  UNL1        0.0017
     14 C          61.8820   86.2498    8.5439 C.ar    1  UNL1        0.0114
     15 C          60.4011   86.4851    8.5055 C.ar    1  UNL1        0.0585
     16 CL         59.5970   86.0133    7.3304 Cl      1  UNL1       -0.0822
     17 C          59.7243   87.1922    9.6421 C.ar    1  UNL1        0.0228
     18 C          60.5284   87.6640   10.8172 C.ar    1  UNL1        0.0585
     19 CL         59.8516   88.3712   11.9538 Cl      1  UNL1       -0.0822
     20 C          62.4600   90.3637   11.2835 C.3     1  UNL1        0.0934
     21 N          63.2917   90.8799   10.1469 N.3     1  UNL1       -0.3174
     22 H          64.0675   91.4298   10.5157 H       1  UNL1        0.1192
     23 H          62.7157   91.4667    9.5433 H       1  UNL1        0.1192
     24 C          64.3126   83.5305   14.6744 C.3     1  UNL1        0.1097
     25 C          63.3437   82.4696   14.2435 C.3     1  UNL1        0.0742
     26 C          63.5648   81.4641   13.1526 C.3     1  UNL1        0.0189
     27 C          62.3414   80.6010   13.0627 C.3     1  UNL1        0.0185
     28 C          61.3640   81.0730   14.0981 C.3     1  UNL1        0.0686
     29 N          61.9835   82.2279   14.8279 N.3     1  UNL1       -0.2972
     30 H          62.0674   82.0056   15.8199 H       1  UNL1        0.1233
@<TRIPOS>BOND
     1     1     2    1
     2     2     3   ar
     3     3     4   ar
     4     4     5   ar
     5     5     6   ar
     6     6    12    1
     7    12    13   ar
     8    13    14   ar
     9    14    15   ar
    10    15    16    1
    11    15    17   ar
    12    17    18   ar
    13    18    19    1
    14     6     7   ar
    15     7    20    1
    16    20    21    1
    17     5     8    1
    18     8     9    2
    19     8    10   am
    20    10    24    1
    21    25    24    1
    22    25    26    1
    23    26    27    1
    24    27    28    1
    25    28    29    1
    26    10    11    1
    27     7     2   ar
    28    29    25    1
    29    11     4    1
    30    18    12   ar
    31    21    22    1
    32    21    23    1
    33    29    30    1
@<TRIPOS>MOLECULE
*****
 30 33 0 0 0
SMALL
GASTEIGER

@<TRIPOS>ATOM
      1 C          59.3422   88.7513    7.3678 C.3     1  UNL1        0.0518
      2 C          60.2506   88.6273    8.5550 C.ar    1  UNL1        0.0563
      3 N          60.6047   89.8433    9.3587 N.ar    1  UNL1       -0.2524
      4 C          61.5131   89.7193   10.5459 C.ar    1  UNL1        0.0830
      5 C          62.0674   88.3793   10.9294 C.ar    1  UNL1        0.0686
      6 C          61.7134   87.1632   10.1257 C.ar    1  UNL1        0.0048
      7 C          60.8049   87.2873    8.9385 C.ar    1  UNL1        0.0072
      8 C          62.9319   88.5648   12.1411 C.2     1  UNL1        0.2505
      9 O          63.6844   87.4851   12.8610 O.2     1  UNL1       -0.2699
     10 N          62.9119   90.0194   12.5064 N.am    1  UNL1       -0.2690
     11 C          62.0350   90.7330   11.5205 C.3     1  UNL1        0.1397
     12 C          62.2677   85.8232   10.5092 C.ar    1  UNL1        0.0106
     13 C          61.9474   85.2354   11.8515 C.ar    1  UNL1        0.0017
     14 C          62.5016   83.8953   12.2351 C.ar    1  UNL1        0.0114
     15 C          63.3761   83.1431   11.2762 C.ar    1  UNL1        0.0585
     16 CL         63.9304   81.8031   11.6597 Cl      1  UNL1       -0.0822
     17 C          63.6964   83.7309    9.9338 C.ar    1  UNL1        0.0228
     18 C          63.1421   85.0710    9.5503 C.ar    1  UNL1        0.0585
     19 CL         63.4624   85.6588    8.2080 Cl      1  UNL1       -0.0822
     20 C          60.4508   86.0712    8.1347 C.3     1  UNL1        0.0934
     21 N          59.0920   85.9545    7.5102 N.3     1  UNL1       -0.3174
     22 H          58.3858   85.8864    8.2430 H       1  UNL1        0.1192
     23 H          59.0571   85.1193    6.9257 H       1  UNL1        0.1192
     24 C          63.6408   90.6499   13.6558 C.3     1  UNL1        0.1097
     25 C          64.8486   91.5021   13.4012 C.3     1  UNL1        0.0742
     26 C          66.1923   91.3429   14.0486 C.3     1  UNL1        0.0189
     27 C          67.0990   92.4055   13.5020 C.3     1  UNL1        0.0185
     28 C          66.3158   93.2215   12.5168 C.3     1  UNL1        0.0686
     29 N          64.9249   92.6631   12.4545 N.3     1  UNL1       -0.2972
     30 H          64.7197   92.3501   11.5056 H       1  UNL1        0.1233
@<TRIPOS>BOND
     1     1     2    1
     2     2     3   ar
     3     3     4   ar
     4     4     5   ar
     5     5     6   ar
     6     6    12    1
     7    12    13   ar
     8    13    14   ar
     9    14    15   ar
    10    15    16    1
    11    15    17   ar
    12    17    18   ar
    13    18    19    1
    14     6     7   ar
    15     7    20    1
    16    20    21    1
    17     5     8    1
    18     8     9    2
    19     8    10   am
    20    10    24    1
    21    25    24    1
    22    25    26    1
    23    26    27    1
    24    27    28    1
    25    28    29    1
    26    10    11    1
    27     7     2   ar
    28    29    25    1
    29    11     4    1
    30    18    12   ar
    31    21    22    1
    32    21    23    1
    33    29    30    1
@<TRIPOS>MOLECULE
*****
 30 33 0 0 0
SMALL
GASTEIGER

@<TRIPOS>ATOM
      1 C          67.0436   93.2947   12.8688 C.3     1  UNL1        0.0518
      2 C          65.8901   92.3596   12.6557 C.ar    1  UNL1        0.0563
      3 N          65.0707   92.4529   11.4027 N.ar    1  UNL1       -0.2524
      4 C          63.9173   91.5179   11.1896 C.ar    1  UNL1        0.0830
      5 C          63.5834   90.4896   12.2294 C.ar    1  UNL1        0.0686
      6 C          64.4028   90.3964   13.4823 C.ar    1  UNL1        0.0048
      7 C          65.5562   91.3314   13.6954 C.ar    1  UNL1        0.0072
      8 C          62.3969   89.7096   11.7457 C.2     1  UNL1        0.2505
      9 O          61.7273   88.5815   12.4730 O.2     1  UNL1       -0.2699
     10 N          61.9976   90.2559   10.4070 N.am    1  UNL1       -0.2690
     11 C          62.9373   91.3734   10.0633 C.3     1  UNL1        0.1397
     12 C          64.0688   89.3681   14.5222 C.ar    1  UNL1        0.0106
     13 C          64.3574   87.9190   14.2637 C.ar    1  UNL1        0.0017
     14 C          64.0235   86.8907   15.3034 C.ar    1  UNL1        0.0114
     15 C          63.4011   87.3116   16.6017 C.ar    1  UNL1        0.0585
     16 CL         63.0672   86.2833   17.6414 Cl      1  UNL1       -0.0822
     17 C          63.1125   88.7607   16.8601 C.ar    1  UNL1        0.0228
     18 C          63.4464   89.7890   15.8204 C.ar    1  UNL1        0.0585
     19 CL         63.1579   91.2381   16.0789 Cl      1  UNL1       -0.0822
     20 C          66.3756   91.2382   14.9484 C.3     1  UNL1        0.0934
     21 N          66.3400   92.3520   15.9525 N.3     1  UNL1       -0.3174
     22 H          66.7490   93.1920   15.5432 H       1  UNL1        0.1192
     23 H          66.8735   92.0820   16.7789 H       1  UNL1        0.1192
     24 C          60.8586   89.7699    9.5605 C.3     1  UNL1        0.1097
     25 C          60.8196   88.3416    9.1039 C.3     1  UNL1        0.0742
     26 C          59.7771   87.7276    8.2173 C.3     1  UNL1        0.0189
     27 C          60.1295   86.2831    8.0191 C.3     1  UNL1        0.0185
     28 C          61.3897   86.0043    8.7833 C.3     1  UNL1        0.0686
     29 N          61.8163   87.2766    9.4538 N.3     1  UNL1       -0.2972
     30 H          62.7427   87.5478    9.1242 H       1  UNL1        0.1233
@<TRIPOS>BOND
     1     1     2    1
     2     2     3   ar
     3     3     4   ar
     4     4     5   ar
     5     5     6   ar
     6     6    12    1
     7    12    13   ar
     8    13    14   ar
     9    14    15   ar
    10    15    16    1
    11    15    17   ar
    12    17    18   ar
    13    18    19    1
    14     6     7   ar
    15     7    20    1
    16    20    21    1
    17     5     8    1
    18     8     9    2
    19     8    10   am
    20    10    24    1
    21    25    24    1
    22    25    26    1
    23    26    27    1
    24    27    28    1
    25    28    29    1
    26    10    11    1
    27     7     2   ar
    28    29    25    1
    29    11     4    1
    30    18    12   ar
    31    21    22    1
    32    21    23    1
    33    29    30    1
@<TRIPOS>MOLECULE
*****
 30 33 0 0 0
SMALL
GASTEIGER

@<TRIPOS>ATOM
      1 C          63.8438   83.7807   15.0433 C.3     1  UNL1        0.0518
      2 C          63.6958   85.0818   14.3117 C.ar    1  UNL1        0.0563
      3 N          64.2710   86.3390   14.8936 N.ar    1  UNL1       -0.2524
      4 C          64.1230   87.6402   14.1622 C.ar    1  UNL1        0.0830
      5 C          63.3998   87.6842   12.8488 C.ar    1  UNL1        0.0686
      6 C          62.8246   86.4270   12.2668 C.ar    1  UNL1        0.0048
      7 C          62.9726   85.1258   12.9984 C.ar    1  UNL1        0.0072
      8 C          63.4109   89.1025   12.3607 C.2     1  UNL1        0.2505
      9 O          62.7993   89.6008   11.0849 O.2     1  UNL1       -0.2699
     10 N          64.1409   89.9351   13.3726 N.am    1  UNL1       -0.2690
     11 C          64.5810   89.0313   14.4859 C.3     1  UNL1        0.1397
     12 C          62.1014   86.4709   10.9534 C.ar    1  UNL1        0.0106
     13 C          62.7007   85.8148    9.7449 C.ar    1  UNL1        0.0017
     14 C          61.9776   85.8587    8.4315 C.ar    1  UNL1        0.0114
     15 C          60.6551   86.5586    8.3266 C.ar    1  UNL1        0.0585
     16 CL         59.9320   86.6025    7.0131 Cl      1  UNL1       -0.0822
     17 C          60.0558   87.2147    9.5350 C.ar    1  UNL1        0.0228
     18 C          60.7789   87.1709   10.8484 C.ar    1  UNL1        0.0585
     19 CL         60.1795   87.8270   12.0569 Cl      1  UNL1       -0.0822
     20 C          62.3974   83.8686   12.4164 C.3     1  UNL1        0.0934
     21 N          63.2822   82.9140   11.6709 N.3     1  UNL1       -0.3174
     22 H          63.6191   83.3588   10.8170 H       1  UNL1        0.1192
     23 H          62.7526   82.0758   11.4315 H       1  UNL1        0.1192
     24 C          64.3876   91.4122   13.2862 C.3     1  UNL1        0.1097
     25 C          65.5736   92.0162   13.9780 C.3     1  UNL1        0.0742
     26 C          66.9863   92.0089   13.4740 C.3     1  UNL1        0.0189
     27 C          67.8409   92.7217   14.4796 C.3     1  UNL1        0.0185
     28 C          66.9564   93.1697   15.6052 C.3     1  UNL1        0.0686
     29 N          65.5550   92.7336   15.2952 N.3     1  UNL1       -0.2972
     30 H          64.9439   93.5482   15.2371 H       1  UNL1        0.1233
@<TRIPOS>BOND
     1     1     2    1
     2     2     3   ar
     3     3     4   ar
     4     4     5   ar
     5     5     6   ar
     6     6    12    1
     7    12    13   ar
     8    13    14   ar
     9    14    15   ar
    10    15    16    1
    11    15    17   ar
    12    17    18   ar
    13    18    19    1
    14     6     7   ar
    15     7    20    1
    16    20    21    1
    17     5     8    1
    18     8     9    2
    19     8    10   am
    20    10    24    1
    21    25    24    1
    22    25    26    1
    23    26    27    1
    24    27    28    1
    25    28    29    1
    26    10    11    1
    27     7     2   ar
    28    29    25    1
    29    11     4    1
    30    18    12   ar
    31    21    22    1
    32    21    23    1
    33    29    30    1
@<TRIPOS>MOLECULE
*****
 30 33 0 0 0
SMALL
GASTEIGER

@<TRIPOS>ATOM
      1 C          60.8196   89.2640    9.2411 C.3     1  UNL1        0.0518
      2 C          61.6157   88.6926   10.3768 C.ar    1  UNL1        0.0563
      3 N          61.6561   87.2088   10.5924 N.ar    1  UNL1       -0.2524
      4 C          62.4521   86.6374   11.7281 C.ar    1  UNL1        0.0830
      5 C          63.2077   87.5498   12.6482 C.ar    1  UNL1        0.0686
      6 C          63.1672   89.0337   12.4326 C.ar    1  UNL1        0.0048
      7 C          62.3712   89.6051   11.2969 C.ar    1  UNL1        0.0072
      8 C          63.9005   86.7033   13.6746 C.2     1  UNL1        0.2505
      9 O          64.7683   87.2044   14.7907 O.2     1  UNL1       -0.2699
     10 N          63.5731   85.2676   13.3888 N.am    1  UNL1       -0.2690
     11 C          62.6780   85.2269   12.1858 C.3     1  UNL1        0.1397
     12 C          63.9228   89.9462   13.3527 C.ar    1  UNL1        0.0106
     13 C          65.1652   90.6354   12.8716 C.ar    1  UNL1        0.0017
     14 C          65.9208   91.5479   13.7916 C.ar    1  UNL1        0.0114
     15 C          65.4339   91.7712   15.1927 C.ar    1  UNL1        0.0585
     16 CL         66.1895   92.6837   16.1126 Cl      1  UNL1       -0.0822
     17 C          64.1915   91.0821   15.6738 C.ar    1  UNL1        0.0228
     18 C          63.4359   90.1695   14.7538 C.ar    1  UNL1        0.0585
     19 CL         62.1935   89.4804   15.2349 Cl      1  UNL1       -0.0822
     20 C          62.3307   91.0890   11.0812 C.3     1  UNL1        0.0934
     21 N          63.1422   91.7097    9.9830 N.3     1  UNL1       -0.3174
     22 H          64.1350   91.5939   10.1868 H       1  UNL1        0.1192
     23 H          62.9223   92.7036    9.9178 H       1  UNL1        0.1192
     24 C          64.0561   84.0810   14.1689 C.3     1  UNL1        0.1097
     25 C          63.3571   82.7605   14.0353 C.3     1  UNL1        0.0742
     26 C          63.8368   81.5861   13.2349 C.3     1  UNL1        0.0189
     27 C          62.8319   80.4825   13.3835 C.3     1  UNL1        0.0185
     28 C          61.7311   80.9747   14.2756 C.3     1  UNL1        0.0686
     29 N          62.0557   82.3828   14.6785 N.3     1  UNL1       -0.2972
     30 H          62.1411   82.4415   15.6932 H       1  UNL1        0.1233
@<TRIPOS>BOND
     1     1     2    1
     2     2     3   ar
     3     3     4   ar
     4     4     5   ar
     5     5     6   ar
     6     6    12    1
     7    12    13   ar
     8    13    14   ar
     9    14    15   ar
    10    15    16    1
    11    15    17   ar
    12    17    18   ar
    13    18    19    1
    14     6     7   ar
    15     7    20    1
    16    20    21    1
    17     5     8    1
    18     8     9    2
    19     8    10   am
    20    10    24    1
    21    25    24    1
    22    25    26    1
    23    26    27    1
    24    27    28    1
    25    28    29    1
    26    10    11    1
    27     7     2   ar
    28    29    25    1
    29    11     4    1
    30    18    12   ar
    31    21    22    1
    32    21    23    1
    33    29    30    1
@<TRIPOS>MOLECULE
*****
 30 33 0 0 0
SMALL
GASTEIGER

@<TRIPOS>ATOM
      1 C          62.1412   90.8936   11.4991 C.3     1  UNL1        0.0518
      2 C          62.3655   89.4104   11.5064 C.ar    1  UNL1        0.0563
      3 N          62.8759   88.7353   12.7449 N.ar    1  UNL1       -0.2524
      4 C          63.1002   87.2522   12.7523 C.ar    1  UNL1        0.0830
      5 C          62.8142   86.4442   11.5213 C.ar    1  UNL1        0.0686
      6 C          62.3039   87.1194   10.2829 C.ar    1  UNL1        0.0048
      7 C          62.0796   88.6025   10.2755 C.ar    1  UNL1        0.0072
      8 C          63.1292   85.0095   11.8249 C.2     1  UNL1        0.2505
      9 O          62.9883   83.8560   10.8764 O.2     1  UNL1       -0.2699
     10 N          63.6099   84.9307   13.2436 N.am    1  UNL1       -0.2690
     11 C          63.5920   86.3168   13.8168 C.3     1  UNL1        0.1397
     12 C          62.0179   86.3114    9.0518 C.ar    1  UNL1        0.0106
     13 C          63.1323   85.5925    8.3509 C.ar    1  UNL1        0.0017
     14 C          62.8464   84.7846    7.1199 C.ar    1  UNL1        0.0114
     15 C          61.4460   84.6957    6.5897 C.ar    1  UNL1        0.0585
     16 CL         61.1601   83.8877    5.3586 Cl      1  UNL1       -0.0822
     17 C          60.3316   85.4146    7.2906 C.ar    1  UNL1        0.0228
     18 C          60.6175   86.2225    8.5216 C.ar    1  UNL1        0.0585
     19 CL         59.5031   86.9415    9.2225 Cl      1  UNL1       -0.0822
     20 C          61.5692   89.2777    9.0370 C.3     1  UNL1        0.0934
     21 N          60.2299   89.9530    9.0486 N.3     1  UNL1       -0.3174
     22 H          59.4979   89.2542    9.1760 H       1  UNL1        0.1192
     23 H          60.0861   90.4384    8.1631 H       1  UNL1        0.1192
     24 C          64.0341   83.6847   13.9630 C.3     1  UNL1        0.1097
     25 C          63.1442   82.4772   13.9600 C.3     1  UNL1        0.0742
     26 C          63.3590   81.2256   13.1617 C.3     1  UNL1        0.0189
     27 C          62.2308   80.2842   13.4631 C.3     1  UNL1        0.0185
     28 C          61.3187   80.9538   14.4477 C.3     1  UNL1        0.0686
     29 N          61.8832   82.3093   14.7549 N.3     1  UNL1       -0.2972
     30 H          62.0900   82.3805   15.7512 H       1  UNL1        0.1233
@<TRIPOS>BOND
     1     1     2    1
     2     2     3   ar
     3     3     4   ar
     4     4     5   ar
     5     5     6   ar
     6     6    12    1
     7    12    13   ar
     8    13    14   ar
     9    14    15   ar
    10    15    16    1
    11    15    17   ar
    12    17    18   ar
    13    18    19    1
    14     6     7   ar
    15     7    20    1
    16    20    21    1
    17     5     8    1
    18     8     9    2
    19     8    10   am
    20    10    24    1
    21    25    24    1
    22    25    26    1
    23    26    27    1
    24    27    28    1
    25    28    29    1
    26    10    11    1
    27     7     2   ar
    28    29    25    1
    29    11     4    1
    30    18    12   ar
    31    21    22    1
    32    21    23    1
    33    29    30    1
@<TRIPOS>MOLECULE
*****
 30 33 0 0 0
SMALL
GASTEIGER

@<TRIPOS>ATOM
      1 C          64.7501   89.3202   14.9241 C.3     1  UNL1        0.0518
      2 C          64.0770   88.4186   13.9320 C.ar    1  UNL1        0.0563
      3 N          63.3839   89.0031   12.7371 N.ar    1  UNL1       -0.2524
      4 C          62.7109   88.1016   11.7450 C.ar    1  UNL1        0.0830
      5 C          62.7310   86.6155   11.9478 C.ar    1  UNL1        0.0686
      6 C          63.4241   86.0309   13.1427 C.ar    1  UNL1        0.0048
      7 C          64.0972   86.9326   14.1348 C.ar    1  UNL1        0.0072
      8 C          61.9870   85.9822   10.8096 C.2     1  UNL1        0.2505
      9 O          61.7624   84.5123   10.6123 O.2     1  UNL1       -0.2699
     10 N          61.5072   87.0769    9.9034 N.am    1  UNL1       -0.2690
     11 C          61.9545   88.3868   10.4814 C.3     1  UNL1        0.1397
     12 C          63.4443   84.5448   13.3456 C.ar    1  UNL1        0.0106
     13 C          64.3666   83.6889   12.5291 C.ar    1  UNL1        0.0017
     14 C          64.3868   82.2028   12.7320 C.ar    1  UNL1        0.0114
     15 C          63.4847   81.5727   13.7513 C.ar    1  UNL1        0.0585
     16 CL         63.5049   80.0866   13.9541 Cl      1  UNL1       -0.0822
     17 C          62.5623   82.4287   14.5677 C.ar    1  UNL1        0.0228
     18 C          62.5421   83.9147   14.3649 C.ar    1  UNL1        0.0585
     19 CL         61.6197   84.7707   15.1813 Cl      1  UNL1       -0.0822
     20 C          64.7903   86.3480   15.3298 C.3     1  UNL1        0.0934
     21 N          66.0704   85.5857   15.1558 N.3     1  UNL1       -0.3174
     22 H          65.8885   84.7313   14.6291 H       1  UNL1        0.1192
     23 H          66.4506   85.3461   16.0715 H       1  UNL1        0.1192
     24 C          60.7184   86.8939    8.6407 C.3     1  UNL1        0.1097
     25 C          61.1333   85.8555    7.6410 C.3     1  UNL1        0.0742
     26 C          62.5368   85.3959    7.3781 C.3     1  UNL1        0.0189
     27 C          62.4886   84.3507    6.3033 C.3     1  UNL1        0.0185
     28 C          61.0554   84.1642    5.9019 C.3     1  UNL1        0.0686
     29 N          60.2177   85.0943    6.7287 N.3     1  UNL1       -0.2972
     30 H          59.5469   84.5587    7.2797 H       1  UNL1        0.1233
@<TRIPOS>BOND
     1     1     2    1
     2     2     3   ar
     3     3     4   ar
     4     4     5   ar
     5     5     6   ar
     6     6    12    1
     7    12    13   ar
     8    13    14   ar
     9    14    15   ar
    10    15    16    1
    11    15    17   ar
    12    17    18   ar
    13    18    19    1
    14     6     7   ar
    15     7    20    1
    16    20    21    1
    17     5     8    1
    18     8     9    2
    19     8    10   am
    20    10    24    1
    21    25    24    1
    22    25    26    1
    23    26    27    1
    24    27    28    1
    25    28    29    1
    26    10    11    1
    27     7     2   ar
    28    29    25    1
    29    11     4    1
    30    18    12   ar
    31    21    22    1
    32    21    23    1
    33    29    30    1
@<TRIPOS>MOLECULE
*****
 30 33 0 0 0
SMALL
GASTEIGER

@<TRIPOS>ATOM
      1 C          58.9814   88.3767    7.1150 C.3     1  UNL1        0.0518
      2 C          59.9808   88.3958    8.2335 C.ar    1  UNL1        0.0563
      3 N          60.3393   89.6926    8.8967 N.ar    1  UNL1       -0.2524
      4 C          61.3386   89.7118   10.0151 C.ar    1  UNL1        0.0830
      5 C          61.9795   88.4343   10.4704 C.ar    1  UNL1        0.0686
      6 C          61.6210   87.1375    9.8071 C.ar    1  UNL1        0.0048
      7 C          60.6216   87.1184    8.6887 C.ar    1  UNL1        0.0072
      8 C          62.9231   88.7621   11.5893 C.2     1  UNL1        0.2505
      9 O          63.7748   87.7818   12.3401 O.2     1  UNL1       -0.2699
     10 N          62.8654   90.2422   11.8257 N.am    1  UNL1       -0.2690
     11 C          61.8862   90.8292   10.8528 C.3     1  UNL1        0.1397
     12 C          62.2618   85.8599   10.2623 C.ar    1  UNL1        0.0106
     13 C          63.1649   85.1020    9.3350 C.ar    1  UNL1        0.0017
     14 C          63.8058   83.8245    9.7900 C.ar    1  UNL1        0.0114
     15 C          63.5435   83.3048   11.1725 C.ar    1  UNL1        0.0585
     16 CL         64.1844   82.0272   11.6275 Cl      1  UNL1       -0.0822
     17 C          62.6404   84.0627   12.0998 C.ar    1  UNL1        0.0228
     18 C          61.9995   85.3403   11.6447 C.ar    1  UNL1        0.0585
     19 CL         61.0964   86.0982   12.5721 Cl      1  UNL1       -0.0822
     20 C          60.2631   85.8215    8.0254 C.3     1  UNL1        0.0934
     21 N          60.9467   85.4155    6.7535 N.3     1  UNL1       -0.3174
     22 H          60.6922   86.0643    6.0086 H       1  UNL1        0.1192
     23 H          60.6554   84.4723    6.4970 H       1  UNL1        0.1192
     24 C          63.6494   91.0020   12.8544 C.3     1  UNL1        0.1097
     25 C          63.5304   90.6409   14.3054 C.3     1  UNL1        0.0742
     26 C          64.1851   91.3578   15.4488 C.3     1  UNL1        0.0189
     27 C          63.7952   90.6596   16.7178 C.3     1  UNL1        0.0185
     28 C          62.8996   89.5112   16.3588 C.3     1  UNL1        0.0686
     29 N          62.7359   89.4996   14.8677 N.3     1  UNL1       -0.2972
     30 H          61.7511   89.6115   14.6267 H       1  UNL1        0.1233
@<TRIPOS>BOND
     1     1     2    1
     2     2     3   ar
     3     3     4   ar
     4     4     5   ar
     5     5     6   ar
     6     6    12    1
     7    12    13   ar
     8    13    14   ar
     9    14    15   ar
    10    15    16    1
    11    15    17   ar
    12    17    18   ar
    13    18    19    1
    14     6     7   ar
    15     7    20    1
    16    20    21    1
    17     5     8    1
    18     8     9    2
    19     8    10   am
    20    10    24    1
    21    25    24    1
    22    25    26    1
    23    26    27    1
    24    27    28    1
    25    28    29    1
    26    10    11    1
    27     7     2   ar
    28    29    25    1
    29    11     4    1
    30    18    12   ar
    31    21    22    1
    32    21    23    1
    33    29    30    1
@<TRIPOS>MOLECULE
*****
 30 33 0 0 0
SMALL
GASTEIGER

@<TRIPOS>ATOM
      1 C          63.1573   80.1250   11.4856 C.3     1  UNL1        0.0518
      2 C          63.0404   81.6191   11.5497 C.ar    1  UNL1        0.0563
      3 N          62.9284   82.4176   10.2848 N.ar    1  UNL1       -0.2524
      4 C          62.8116   83.9116   10.3489 C.ar    1  UNL1        0.0830
      5 C          62.8068   84.6073   11.6778 C.ar    1  UNL1        0.0686
      6 C          62.9188   83.8088   12.9427 C.ar    1  UNL1        0.0048
      7 C          63.0356   82.3147   12.8786 C.ar    1  UNL1        0.0072
      8 C          62.6797   86.0810   11.4291 C.2     1  UNL1        0.2505
      9 O          62.6343   87.1516   12.4788 O.2     1  UNL1       -0.2699
     10 N          62.6059   86.2962    9.9465 N.am    1  UNL1       -0.2690
     11 C          62.6875   84.9555    9.2788 C.3     1  UNL1        0.1397
     12 C          62.9140   84.5044   14.2717 C.ar    1  UNL1        0.0106
     13 C          61.6256   84.6874   15.0177 C.ar    1  UNL1        0.0017
     14 C          61.6207   85.3829   16.3467 C.ar    1  UNL1        0.0114
     15 C          62.9042   85.8954   16.9296 C.ar    1  UNL1        0.0585
     16 CL         62.8993   86.5910   18.2586 Cl      1  UNL1       -0.0822
     17 C          64.1926   85.7125   16.1836 C.ar    1  UNL1        0.0228
     18 C          64.1975   85.0169   14.8546 C.ar    1  UNL1        0.0585
     19 CL         65.4859   84.8340   14.1086 Cl      1  UNL1       -0.0822
     20 C          63.1476   81.5162   14.1435 C.3     1  UNL1        0.0934
     21 N          61.9111   80.9926   14.8119 N.3     1  UNL1       -0.3174
     22 H          61.3517   81.7746   15.1526 H       1  UNL1        0.1192
     23 H          62.1751   80.3962   15.5961 H       1  UNL1        0.1192
     24 C          62.4738   87.6198    9.2532 C.3     1  UNL1        0.1097
     25 C          61.7530   88.7502    9.9259 C.3     1  UNL1        0.0742
     26 C          60.3090   89.1107    9.7388 C.3     1  UNL1        0.0189
     27 C          60.0131   90.3018   10.6010 C.3     1  UNL1        0.0185
     28 C          61.2742   90.6776   11.3211 C.3     1  UNL1        0.0686
     29 N          62.3495   89.7186   10.9039 N.3     1  UNL1       -0.2972
     30 H          62.7001   89.2156   11.7190 H       1  UNL1        0.1233
@<TRIPOS>BOND
     1     1     2    1
     2     2     3   ar
     3     3     4   ar
     4     4     5   ar
     5     5     6   ar
     6     6    12    1
     7    12    13   ar
     8    13    14   ar
     9    14    15   ar
    10    15    16    1
    11    15    17   ar
    12    17    18   ar
    13    18    19    1
    14     6     7   ar
    15     7    20    1
    16    20    21    1
    17     5     8    1
    18     8     9    2
    19     8    10   am
    20    10    24    1
    21    25    24    1
    22    25    26    1
    23    26    27    1
    24    27    28    1
    25    28    29    1
    26    10    11    1
    27     7     2   ar
    28    29    25    1
    29    11     4    1
    30    18    12   ar
    31    21    22    1
    32    21    23    1
    33    29    30    1
