@<TRIPOS>MOLECULE
*****
 26 30 0 0 0
SMALL
GASTEIGER

@<TRIPOS>ATOM
      1 C          63.5440   85.7992   13.3220 C.ar    1  UNL1        0.0152
      2 C          63.0814   86.8455   12.3518 C.ar    1  UNL1        0.0043
      3 C          63.2922   88.2986   12.6589 C.ar    1  UNL1        0.0369
      4 C          63.9655   88.7052   13.9362 C.ar    1  UNL1        0.1384
      5 C          64.4280   87.6588   14.9063 C.ar    1  UNL1        0.0369
      6 C          64.2172   86.2058   14.5992 C.ar    1  UNL1        0.0043
      7 O          62.7008   79.9871   12.0937 O.2     1  UNL1       -0.2734
      8 C          62.9116   81.4401   12.4007 C.2     1  UNL1        0.2410
      9 N          62.4728   81.9988   13.7218 N.am    1  UNL1       -0.2062
     10 N          62.6836   83.4518   14.0289 N.2     1  UNL1       -0.1836
     11 C          63.3332   84.3461   13.0149 C.2     1  UNL1        0.0763
     12 C          63.7720   83.7874   11.6938 C.3     1  UNL1        0.0509
     13 C          64.2108   83.2287   10.3727 C.3     1  UNL1        0.0160
     14 C          63.5612   82.3344   11.3867 C.3     1  UNL1        0.0841
     15 H          62.0465   81.4118   14.3874 H       1  UNL1        0.1772
     16 O          64.1763   90.1582   14.2433 O.3     1  UNL1       -0.4791
     17 C          64.8450   91.0480   13.2376 C.3     1  UNL1        0.1687
     18 C          66.2090   91.6051   13.5187 C.3     1  UNL1        0.0609
     19 C          66.8776   92.4949   12.5131 C.3     1  UNL1        0.0758
     20 N          66.1822   92.8275   11.2263 N.3     1  UNL1       -0.2737
     21 C          64.8181   92.2704   10.9452 C.3     1  UNL1        0.0758
     22 C          64.1495   91.3806   11.9508 C.3     1  UNL1        0.0609
     23 C          66.8508   93.7173   10.2207 C.3     1  UNL1        0.0575
     24 C          66.7449   95.1671    9.8510 C.3     1  UNL1        0.0160
     25 C          67.7963   94.9756    8.7985 C.3     1  UNL1        0.0028
     26 C          67.9022   93.5257    9.1682 C.3     1  UNL1        0.0160
@<TRIPOS>BOND
     1     7     8    2
     2     8     9   am
     3     9    10    1
     4    10    11    2
     5    11     1    1
     6     1     2   ar
     7     2     3   ar
     8     3     4   ar
     9     4    16    1
    10    16    17    1
    11    17    18    1
    12    18    19    1
    13    19    20    1
    14    20    23    1
    15    23    24    1
    16    24    25    1
    17    25    26    1
    18    20    21    1
    19    21    22    1
    20     4     5   ar
    21     5     6   ar
    22    11    12    1
    23    12    13    1
    24    14    13    1
    25    14     8    1
    26     6     1   ar
    27    14    12    1
    28    22    17    1
    29    26    23    1
    30     9    15    1
@<TRIPOS>MOLECULE
*****
 26 30 0 0 0
SMALL
GASTEIGER

@<TRIPOS>ATOM
      1 C          65.8767   92.6660   11.9567 C.ar    1  UNL1        0.0152
      2 C          64.5565   91.9924   11.7251 C.ar    1  UNL1        0.0043
      3 C          64.0705   90.9455   12.6831 C.ar    1  UNL1        0.0369
      4 C          64.9046   90.5720   13.8726 C.ar    1  UNL1        0.1384
      5 C          66.2247   91.2455   14.1041 C.ar    1  UNL1        0.0369
      6 C          66.7107   92.2925   13.1462 C.ar    1  UNL1        0.0043
      7 O          67.8209   96.8539    8.1251 O.2     1  UNL1       -0.2734
      8 C          67.3348   95.8069    9.0830 C.2     1  UNL1        0.2410
      9 N          66.3429   96.1679   10.1487 N.am    1  UNL1       -0.2062
     10 N          65.8569   95.1209   11.1066 N.2     1  UNL1       -0.1836
     11 C          66.3627   93.7129   10.9988 C.2     1  UNL1        0.0763
     12 C          67.3547   93.3519    9.9331 C.3     1  UNL1        0.0509
     13 C          68.3466   92.9909    8.8674 C.3     1  UNL1        0.0160
     14 C          67.8407   94.3988    8.9752 C.3     1  UNL1        0.0841
     15 H          66.0109   97.0920   10.2194 H       1  UNL1        0.1772
     16 O          64.4185   89.5250   14.8305 O.3     1  UNL1       -0.4791
     17 C          64.0855   88.1497   14.3327 C.3     1  UNL1        0.1687
     18 C          64.3476   86.9543   15.2000 C.3     1  UNL1        0.0609
     19 C          64.0146   85.5790   14.7022 C.3     1  UNL1        0.0758
     20 N          63.4193   85.3992   13.3372 N.3     1  UNL1       -0.2737
     21 C          63.1571   86.5947   12.4699 C.3     1  UNL1        0.0758
     22 C          63.4902   87.9699   12.9677 C.3     1  UNL1        0.0609
     23 C          63.0862   84.0240   12.8394 C.3     1  UNL1        0.0575
     24 C          62.6634   82.7366   13.4828 C.3     1  UNL1        0.0160
     25 C          62.6151   82.0791   12.1354 C.3     1  UNL1        0.0028
     26 C          63.0379   83.3665   11.4921 C.3     1  UNL1        0.0160
@<TRIPOS>BOND
     1     7     8    2
     2     8     9   am
     3     9    10    1
     4    10    11    2
     5    11     1    1
     6     1     2   ar
     7     2     3   ar
     8     3     4   ar
     9     4    16    1
    10    16    17    1
    11    17    18    1
    12    18    19    1
    13    19    20    1
    14    20    23    1
    15    23    24    1
    16    24    25    1
    17    25    26    1
    18    20    21    1
    19    21    22    1
    20     4     5   ar
    21     5     6   ar
    22    11    12    1
    23    12    13    1
    24    14    13    1
    25    14     8    1
    26     6     1   ar
    27    14    12    1
    28    22    17    1
    29    26    23    1
    30     9    15    1
@<TRIPOS>MOLECULE
*****
 26 30 0 0 0
SMALL
GASTEIGER

@<TRIPOS>ATOM
      1 C          63.5154   85.7506   13.0592 C.ar    1  UNL1        0.0152
      2 C          62.9947   86.8238   12.1497 C.ar    1  UNL1        0.0043
      3 C          63.1743   88.2678   12.5138 C.ar    1  UNL1        0.0369
      4 C          63.8745   88.6387   13.7875 C.ar    1  UNL1        0.1384
      5 C          64.3952   87.5655   14.6970 C.ar    1  UNL1        0.0369
      6 C          64.2156   86.1215   14.3329 C.ar    1  UNL1        0.0043
      7 O          62.7972   79.9746   11.6027 O.2     1  UNL1       -0.2734
      8 C          62.9767   81.4186   11.9668 C.2     1  UNL1        0.2410
      9 N          63.6115   82.3648   10.9912 N.am    1  UNL1       -0.2062
     10 N          63.7910   83.8088   11.3554 N.2     1  UNL1       -0.1836
     11 C          63.3359   84.3066   12.6951 C.2     1  UNL1        0.0763
     12 C          62.7011   83.3604   13.6708 C.3     1  UNL1        0.0509
     13 C          62.0664   82.4143   14.6464 C.3     1  UNL1        0.0160
     14 C          62.5215   81.9164   13.3066 C.3     1  UNL1        0.0841
     15 H          63.9102   82.0381   10.1119 H       1  UNL1        0.1772
     16 O          64.0541   90.0827   14.1517 O.3     1  UNL1       -0.4791
     17 C          64.7435   91.0158   13.2008 C.3     1  UNL1        0.1687
     18 C          64.1037   91.3559   11.8875 C.3     1  UNL1        0.0609
     19 C          64.7931   92.2890   10.9366 C.3     1  UNL1        0.0758
     20 N          66.1224   92.8820   11.2992 N.3     1  UNL1       -0.2737
     21 C          66.7622   92.5419   12.6126 C.3     1  UNL1        0.0758
     22 C          66.0728   91.6088   13.5634 C.3     1  UNL1        0.0609
     23 C          66.8118   93.8151   10.3484 C.3     1  UNL1        0.0575
     24 C          66.8212   95.3005   10.1397 C.3     1  UNL1        0.0160
     25 C          67.7868   95.1347    9.0038 C.3     1  UNL1        0.0028
     26 C          67.7774   93.6493    9.2126 C.3     1  UNL1        0.0160
@<TRIPOS>BOND
     1     7     8    2
     2     8     9   am
     3     9    10    1
     4    10    11    2
     5    11     1    1
     6     1     2   ar
     7     2     3   ar
     8     3     4   ar
     9     4    16    1
    10    16    17    1
    11    17    18    1
    12    18    19    1
    13    19    20    1
    14    20    23    1
    15    23    24    1
    16    24    25    1
    17    25    26    1
    18    20    21    1
    19    21    22    1
    20     4     5   ar
    21     5     6   ar
    22    11    12    1
    23    12    13    1
    24    14    13    1
    25    14     8    1
    26     6     1   ar
    27    14    12    1
    28    22    17    1
    29    26    23    1
    30     9    15    1
@<TRIPOS>MOLECULE
*****
 26 30 0 0 0
SMALL
GASTEIGER

@<TRIPOS>ATOM
      1 C          64.6503   91.2469   13.8580 C.ar    1  UNL1        0.0152
      2 C          64.2732   91.4696   12.4233 C.ar    1  UNL1        0.0043
      3 C          63.0620   90.7935   11.8526 C.ar    1  UNL1        0.0369
      4 C          62.2279   89.8946   12.7165 C.ar    1  UNL1        0.1384
      5 C          62.6050   89.6718   14.1511 C.ar    1  UNL1        0.0369
      6 C          63.8162   90.3480   14.7219 C.ar    1  UNL1        0.0043
      7 O          69.4952   93.9514   16.1411 O.2     1  UNL1       -0.2734
      8 C          68.2840   93.2753   15.5703 C.2     1  UNL1        0.2410
      9 N          66.9677   93.3671   16.2837 N.am    1  UNL1       -0.2062
     10 N          65.7565   92.6910   15.7129 N.2     1  UNL1       -0.1836
     11 C          65.8616   91.9230   14.4288 C.2     1  UNL1        0.0763
     12 C          67.1779   91.8311   13.7153 C.3     1  UNL1        0.0509
     13 C          68.4941   91.7392   13.0019 C.3     1  UNL1        0.0160
     14 C          68.3891   92.5072   14.2861 C.3     1  UNL1        0.0841
     15 H          66.8988   93.8712   17.1265 H       1  UNL1        0.1772
     16 O          61.0167   89.2184   12.1457 O.3     1  UNL1       -0.4791
     17 C          61.1594   88.2779   10.9859 C.3     1  UNL1        0.1687
     18 C          62.1727   87.1731   11.0366 C.3     1  UNL1        0.0609
     19 C          62.3155   86.2325    9.8768 C.3     1  UNL1        0.0758
     20 N          61.4449   86.3968    8.6664 N.3     1  UNL1       -0.2737
     21 C          60.4315   87.5017    8.6158 C.3     1  UNL1        0.0758
     22 C          60.2888   88.4422    9.7755 C.3     1  UNL1        0.0609
     23 C          61.5876   85.4564    7.5066 C.3     1  UNL1        0.0575
     24 C          62.7308   84.7222    6.8708 C.3     1  UNL1        0.0160
     25 C          61.7894   84.1263    5.8664 C.3     1  UNL1        0.0028
     26 C          60.6463   84.8604    6.5023 C.3     1  UNL1        0.0160
@<TRIPOS>BOND
     1     7     8    2
     2     8     9   am
     3     9    10    1
     4    10    11    2
     5    11     1    1
     6     1     2   ar
     7     2     3   ar
     8     3     4   ar
     9     4    16    1
    10    16    17    1
    11    17    18    1
    12    18    19    1
    13    19    20    1
    14    20    23    1
    15    23    24    1
    16    24    25    1
    17    25    26    1
    18    20    21    1
    19    21    22    1
    20     4     5   ar
    21     5     6   ar
    22    11    12    1
    23    12    13    1
    24    14    13    1
    25    14     8    1
    26     6     1   ar
    27    14    12    1
    28    22    17    1
    29    26    23    1
    30     9    15    1
@<TRIPOS>MOLECULE
*****
 26 30 0 0 0
SMALL
GASTEIGER

@<TRIPOS>ATOM
      1 C          64.7133   90.8941   14.3754 C.ar    1  UNL1        0.0152
      2 C          64.7781   89.5012   13.8224 C.ar    1  UNL1        0.0043
      3 C          64.2508   88.3498   14.6262 C.ar    1  UNL1        0.0369
      4 C          63.6587   88.5913   15.9832 C.ar    1  UNL1        0.1384
      5 C          63.5940   89.9841   16.5362 C.ar    1  UNL1        0.0369
      6 C          64.1213   91.1355   15.7323 C.ar    1  UNL1        0.0043
      7 O          66.8227   95.4997   11.1600 O.2     1  UNL1       -0.2734
      8 C          66.2953   94.3483   11.9639 C.2     1  UNL1        0.2410
      9 N          66.5566   94.2817   13.4394 N.am    1  UNL1       -0.2062
     10 N          66.0293   93.1303   14.2433 N.2     1  UNL1       -0.1836
     11 C          65.2407   92.0455   13.5716 C.2     1  UNL1        0.0763
     12 C          64.9794   92.1120   12.0960 C.3     1  UNL1        0.0509
     13 C          64.7181   92.1786   10.6204 C.3     1  UNL1        0.0160
     14 C          65.5067   93.2634   11.2921 C.3     1  UNL1        0.0841
     15 H          67.0742   94.9938   13.8803 H       1  UNL1        0.1772
     16 O          63.1314   87.4399   16.7870 O.3     1  UNL1       -0.4791
     17 C          63.0191   86.0797   16.1646 C.3     1  UNL1        0.1687
     18 C          61.6796   85.4140   16.0534 C.3     1  UNL1        0.0609
     19 C          61.5673   84.0538   15.4310 C.3     1  UNL1        0.0758
     20 N          62.7947   83.3593   14.9198 N.3     1  UNL1       -0.2737
     21 C          64.1343   84.0251   15.0310 C.3     1  UNL1        0.0758
     22 C          64.2465   85.3852   15.6534 C.3     1  UNL1        0.0609
     23 C          62.6825   81.9992   14.2974 C.3     1  UNL1        0.0575
     24 C          61.5606   81.0341   14.0524 C.3     1  UNL1        0.0160
     25 C          62.5238   80.0757   13.4172 C.3     1  UNL1        0.0028
     26 C          63.6457   81.0408   13.6621 C.3     1  UNL1        0.0160
@<TRIPOS>BOND
     1     7     8    2
     2     8     9   am
     3     9    10    1
     4    10    11    2
     5    11     1    1
     6     1     2   ar
     7     2     3   ar
     8     3     4   ar
     9     4    16    1
    10    16    17    1
    11    17    18    1
    12    18    19    1
    13    19    20    1
    14    20    23    1
    15    23    24    1
    16    24    25    1
    17    25    26    1
    18    20    21    1
    19    21    22    1
    20     4     5   ar
    21     5     6   ar
    22    11    12    1
    23    12    13    1
    24    14    13    1
    25    14     8    1
    26     6     1   ar
    27    14    12    1
    28    22    17    1
    29    26    23    1
    30     9    15    1
@<TRIPOS>MOLECULE
*****
 26 30 0 0 0
SMALL
GASTEIGER

@<TRIPOS>ATOM
      1 C          64.5202   91.2426   13.2332 C.ar    1  UNL1        0.0152
      2 C          63.6028   90.3488   14.0140 C.ar    1  UNL1        0.0043
      3 C          62.3901   89.7600   13.3561 C.ar    1  UNL1        0.0369
      4 C          62.0948   90.0651   11.9174 C.ar    1  UNL1        0.1384
      5 C          63.0122   90.9589   11.1367 C.ar    1  UNL1        0.0369
      6 C          64.2248   91.5476   11.7945 C.ar    1  UNL1        0.0043
      7 O          69.3708   93.5977   15.8647 O.2     1  UNL1       -0.2734
      8 C          68.1582   93.0089   15.2068 C.2     1  UNL1        0.2410
      9 N          68.1986   92.6383   13.7539 N.am    1  UNL1       -0.2062
     10 N          66.9859   92.0495   13.0960 N.2     1  UNL1       -0.1836
     11 C          65.7328   91.8314   13.8910 C.2     1  UNL1        0.0763
     12 C          65.6923   92.2020   15.3440 C.3     1  UNL1        0.0509
     13 C          65.6519   92.5727   16.7969 C.3     1  UNL1        0.0160
     14 C          66.9050   92.7908   16.0019 C.3     1  UNL1        0.0841
     15 H          69.0211   92.7814   13.2321 H       1  UNL1        0.1772
     16 O          60.8822   89.4763   11.2595 O.3     1  UNL1       -0.4791
     17 C          61.0392   88.4273   10.1989 C.3     1  UNL1        0.1687
     18 C          60.0741   88.3699    9.0520 C.3     1  UNL1        0.0609
     19 C          60.2311   87.3209    7.9914 C.3     1  UNL1        0.0758
     20 N          61.3533   86.3293    8.0776 N.3     1  UNL1       -0.2737
     21 C          62.3184   86.3867    9.2245 C.3     1  UNL1        0.0758
     22 C          62.1614   87.4357   10.2851 C.3     1  UNL1        0.0609
     23 C          61.5104   85.2803    7.0170 C.3     1  UNL1        0.0575
     24 C          60.5669   84.4419    6.2064 C.3     1  UNL1        0.0160
     25 C          61.7325   83.7968    5.5170 C.3     1  UNL1        0.0028
     26 C          62.6759   84.6353    6.3275 C.3     1  UNL1        0.0160
@<TRIPOS>BOND
     1     7     8    2
     2     8     9   am
     3     9    10    1
     4    10    11    2
     5    11     1    1
     6     1     2   ar
     7     2     3   ar
     8     3     4   ar
     9     4    16    1
    10    16    17    1
    11    17    18    1
    12    18    19    1
    13    19    20    1
    14    20    23    1
    15    23    24    1
    16    24    25    1
    17    25    26    1
    18    20    21    1
    19    21    22    1
    20     4     5   ar
    21     5     6   ar
    22    11    12    1
    23    12    13    1
    24    14    13    1
    25    14     8    1
    26     6     1   ar
    27    14    12    1
    28    22    17    1
    29    26    23    1
    30     9    15    1
@<TRIPOS>MOLECULE
*****
 26 30 0 0 0
SMALL
GASTEIGER

@<TRIPOS>ATOM
      1 C          62.7587   85.2303   11.9829 C.ar    1  UNL1        0.0152
      2 C          62.0093   85.9913   10.9296 C.ar    1  UNL1        0.0043
      3 C          62.0095   87.4912   10.9450 C.ar    1  UNL1        0.0369
      4 C          62.7591   88.2302   12.0137 C.ar    1  UNL1        0.1384
      5 C          63.5085   87.4693   13.0669 C.ar    1  UNL1        0.0369
      6 C          63.5083   85.9693   13.0515 C.ar    1  UNL1        0.0043
      7 O          62.7580   79.2307   11.9214 O.2     1  UNL1       -0.2734
      8 C          62.7582   80.7306   11.9368 C.2     1  UNL1        0.2410
      9 N          63.1335   81.4932   10.7010 N.am    1  UNL1       -0.2062
     10 N          63.1337   82.9932   10.7163 N.2     1  UNL1       -0.1836
     11 C          62.7585   83.7304   11.9676 C.2     1  UNL1        0.0763
     12 C          62.3831   82.9678   13.2035 C.3     1  UNL1        0.0509
     13 C          62.0077   82.2051   14.4394 C.3     1  UNL1        0.0160
     14 C          62.3829   81.4678   13.1881 C.3     1  UNL1        0.0841
     15 H          63.3798   81.0094    9.8797 H       1  UNL1        0.1772
     16 O          62.7593   89.7301   12.0291 O.3     1  UNL1       -0.4791
     17 C          63.8315   90.4724   12.7704 C.3     1  UNL1        0.1687
     18 C          64.1639   90.0962   14.1839 C.3     1  UNL1        0.0609
     19 C          65.2361   90.8385   14.9252 C.3     1  UNL1        0.0758
     20 N          65.9758   91.9570   14.2530 N.3     1  UNL1       -0.2737
     21 C          65.6433   92.3332   12.8395 C.3     1  UNL1        0.0758
     22 C          64.5711   91.5909   12.0982 C.3     1  UNL1        0.0609
     23 C          67.0479   92.6993   14.9943 C.3     1  UNL1        0.0575
     24 C          67.6072   94.0900   14.9390 C.3     1  UNL1        0.0160
     25 C          68.5641   93.7491   16.0427 C.3     1  UNL1        0.0028
     26 C          68.0048   92.3584   16.0980 C.3     1  UNL1        0.0160
@<TRIPOS>BOND
     1     7     8    2
     2     8     9   am
     3     9    10    1
     4    10    11    2
     5    11     1    1
     6     1     2   ar
     7     2     3   ar
     8     3     4   ar
     9     4    16    1
    10    16    17    1
    11    17    18    1
    12    18    19    1
    13    19    20    1
    14    20    23    1
    15    23    24    1
    16    24    25    1
    17    25    26    1
    18    20    21    1
    19    21    22    1
    20     4     5   ar
    21     5     6   ar
    22    11    12    1
    23    12    13    1
    24    14    13    1
    25    14     8    1
    26     6     1   ar
    27    14    12    1
    28    22    17    1
    29    26    23    1
    30     9    15    1
@<TRIPOS>MOLECULE
*****
 26 30 0 0 0
SMALL
GASTEIGER

@<TRIPOS>ATOM
      1 C          65.0248   90.8604   13.6702 C.ar    1  UNL1        0.0152
      2 C          64.7197   89.4915   14.2025 C.ar    1  UNL1        0.0043
      3 C          63.7339   88.6128   13.4911 C.ar    1  UNL1        0.0369
      4 C          63.0533   89.1028   12.2474 C.ar    1  UNL1        0.1384
      5 C          63.3585   90.4716   11.7152 C.ar    1  UNL1        0.0369
      6 C          64.3443   91.3504   12.4266 C.ar    1  UNL1        0.0043
      7 O          68.9679   94.3754   16.5158 O.2     1  UNL1       -0.2734
      8 C          67.9821   93.4966   15.8044 C.2     1  UNL1        0.2410
      9 N          66.5697   93.3997   16.2999 N.am    1  UNL1       -0.2062
     10 N          65.5839   92.5210   15.5885 N.2     1  UNL1       -0.1836
     11 C          66.0106   91.7391   14.3816 C.2     1  UNL1        0.0763
     12 C          67.4231   91.8360   13.8861 C.3     1  UNL1        0.0509
     13 C          68.8356   91.9329   13.3906 C.3     1  UNL1        0.0160
     14 C          68.4089   92.7147   14.5974 C.3     1  UNL1        0.0841
     15 H          66.2896   93.9129   17.0920 H       1  UNL1        0.1772
     16 O          62.0676   88.2241   11.5360 O.3     1  UNL1       -0.4791
     17 C          62.2453   86.7347   11.5482 C.3     1  UNL1        0.1687
     18 C          62.5038   86.0207   12.8418 C.3     1  UNL1        0.0609
     19 C          62.6815   84.5313   12.8539 C.3     1  UNL1        0.0758
     20 N          62.6008   83.7559   11.5724 N.3     1  UNL1       -0.2737
     21 C          62.3423   84.4699   10.2788 C.3     1  UNL1        0.0758
     22 C          62.1646   85.9593   10.2667 C.3     1  UNL1        0.0609
     23 C          62.7785   82.2665   11.5845 C.3     1  UNL1        0.0575
     24 C          63.2494   81.2464   10.5908 C.3     1  UNL1        0.0160
     25 C          63.0298   80.1602   11.6017 C.3     1  UNL1        0.0028
     26 C          62.5588   81.1803   12.5954 C.3     1  UNL1        0.0160
@<TRIPOS>BOND
     1     7     8    2
     2     8     9   am
     3     9    10    1
     4    10    11    2
     5    11     1    1
     6     1     2   ar
     7     2     3   ar
     8     3     4   ar
     9     4    16    1
    10    16    17    1
    11    17    18    1
    12    18    19    1
    13    19    20    1
    14    20    23    1
    15    23    24    1
    16    24    25    1
    17    25    26    1
    18    20    21    1
    19    21    22    1
    20     4     5   ar
    21     5     6   ar
    22    11    12    1
    23    12    13    1
    24    14    13    1
    25    14     8    1
    26     6     1   ar
    27    14    12    1
    28    22    17    1
    29    26    23    1
    30     9    15    1
@<TRIPOS>MOLECULE
*****
 26 30 0 0 0
SMALL
GASTEIGER

@<TRIPOS>ATOM
      1 C          63.2320   85.7239   12.9796 C.ar    1  UNL1        0.0152
      2 C          62.6171   86.4304   11.8078 C.ar    1  UNL1        0.0043
      3 C          62.7188   87.9226   11.6940 C.ar    1  UNL1        0.0369
      4 C          63.4355   88.7084   12.7519 C.ar    1  UNL1        0.1384
      5 C          64.0504   88.0019   13.9235 C.ar    1  UNL1        0.0369
      6 C          63.9486   86.5097   14.0374 C.ar    1  UNL1        0.0043
      7 O          62.8249   79.7551   13.4349 O.2     1  UNL1       -0.2734
      8 C          62.9267   81.2473   13.3211 C.2     1  UNL1        0.2410
      9 N          62.5537   82.1155   14.4859 N.am    1  UNL1       -0.2062
     10 N          62.6554   83.6077   14.3721 N.2     1  UNL1       -0.1836
     11 C          63.1302   84.2317   13.0934 C.2     1  UNL1        0.0763
     12 C          63.5033   83.3635   11.9284 C.3     1  UNL1        0.0509
     13 C          63.8763   82.4953   10.7635 C.3     1  UNL1        0.0160
     14 C          63.4015   81.8713   12.0422 C.3     1  UNL1        0.0841
     15 H          62.2420   81.7060   15.3252 H       1  UNL1        0.1772
     16 O          63.5373   90.2006   12.6381 O.3     1  UNL1       -0.4791
     17 C          64.6613   90.9293   13.3131 C.3     1  UNL1        0.1687
     18 C          65.7881   91.4907   12.4976 C.3     1  UNL1        0.0609
     19 C          66.9121   92.2195   13.1726 C.3     1  UNL1        0.0758
     20 N          66.9092   92.3868   14.6633 N.3     1  UNL1       -0.2737
     21 C          65.7824   91.8253   15.4788 C.3     1  UNL1        0.0758
     22 C          64.6585   91.0966   14.8038 C.3     1  UNL1        0.0609
     23 C          68.0331   93.1155   15.3383 C.3     1  UNL1        0.0575
     24 C          69.2964   92.7048   16.0351 C.3     1  UNL1        0.0160
     25 C          69.6226   94.1460   16.2930 C.3     1  UNL1        0.0028
     26 C          68.3593   94.5567   15.5963 C.3     1  UNL1        0.0160
@<TRIPOS>BOND
     1     7     8    2
     2     8     9   am
     3     9    10    1
     4    10    11    2
     5    11     1    1
     6     1     2   ar
     7     2     3   ar
     8     3     4   ar
     9     4    16    1
    10    16    17    1
    11    17    18    1
    12    18    19    1
    13    19    20    1
    14    20    23    1
    15    23    24    1
    16    24    25    1
    17    25    26    1
    18    20    21    1
    19    21    22    1
    20     4     5   ar
    21     5     6   ar
    22    11    12    1
    23    12    13    1
    24    14    13    1
    25    14     8    1
    26     6     1   ar
    27    14    12    1
    28    22    17    1
    29    26    23    1
    30     9    15    1
