@<TRIPOS>MOLECULE
*****
 32 36 0 0 0
SMALL
GASTEIGER

@<TRIPOS>ATOM
      1 C          71.3455   70.2033   16.8312 C.ar    1  UNL1        0.1056
      2 C          72.3189   70.0044   15.7074 C.ar    1  UNL1        0.0214
      3 C          72.6362   71.1400   14.7803 C.ar    1  UNL1        0.0379
      4 C          71.9802   72.4746   14.9769 C.ar    1  UNL1        0.1342
      5 C          71.0069   72.6735   16.1008 C.ar    1  UNL1        0.0132
      6 C          70.6895   71.5378   17.0279 C.ar    1  UNL1        0.0171
      7 C          70.3509   74.0080   16.2975 C.3     1  UNL1        0.0330
      8 C          70.6682   75.1437   15.3703 C.3     1  UNL1        0.0449
      9 C          71.6416   74.9448   14.2465 C.3     1  UNL1        0.1367
     10 C          70.9856   76.2793   14.4432 C.3     1  UNL1        0.0616
     11 C          71.3030   77.4149   13.5160 C.3     1  UNL1        0.0985
     12 N          72.2763   77.2160   12.3922 N.am    1  UNL1       -0.2640
     13 C          72.5937   78.3517   11.4650 C.2     1  UNL1        0.3039
     14 O          73.5671   78.1528   10.3412 O.2     1  UNL1       -0.2526
     15 N          71.9377   79.6862   11.6617 N.am    1  UNL1       -0.2901
     16 C          72.9323   75.8815   12.1955 C.3     1  UNL1        0.0985
     17 C          72.6150   74.7459   13.1226 C.3     1  UNL1        0.0616
     18 O          72.2976   73.6102   14.0498 O.3     1  UNL1       -0.4828
     19 H          71.2989   79.8168   12.3993 H       1  UNL1        0.1509
     20 C          70.7107   67.9321   18.6856 C.3     1  UNL1        0.1816
     21 S          71.0281   69.0677   17.7584 S.O2    1  UNL1        0.0104
     22 O          71.7418   68.1194   16.8412 O.2     1  UNL1       -0.1686
     23 O          70.3144   70.0160   18.6756 O.2     1  UNL1       -0.1686
     24 C          72.2551   80.8219   10.7345 C.3     1  UNL1        0.0774
     25 C          72.7679   82.2141   10.5137 C.3     1  UNL1        0.0259
     26 C          72.2919   81.3967    9.3495 C.3     1  UNL1        0.0420
     27 C          72.0384   81.2567    7.8778 C.ar    1  UNL1       -0.0208
     28 C          72.1036   82.4621    6.9875 C.ar    1  UNL1       -0.0042
     29 C          71.8501   82.3221    5.5157 C.ar    1  UNL1       -0.0003
     30 C          71.5314   80.9765    4.9343 C.ar    1  UNL1       -0.0000
     31 C          71.4662   79.7711    5.8246 C.ar    1  UNL1       -0.0003
     32 C          71.7197   79.9112    7.2964 C.ar    1  UNL1       -0.0042
@<TRIPOS>BOND
     1    20    21    1
     2    21    22    2
     3    21    23    2
     4    21     1    1
     5     1     2   ar
     6     2     3   ar
     7     3     4   ar
     8     4     5   ar
     9     5     6   ar
    10     5     7    1
    11     7     8    1
    12     8     9    1
    13     9    10    1
    14    10    11    1
    15    11    12    1
    16    12    13   am
    17    13    14    2
    18    13    15   am
    19    24    15    1
    20    24    25    1
    21    25    26    1
    22    26    27    1
    23    27    28   ar
    24    28    29   ar
    25    29    30   ar
    26    30    31   ar
    27    31    32   ar
    28    12    16    1
    29    16    17    1
    30     9    18    1
    31     6     1   ar
    32    17     9    1
    33    18     4    1
    34    26    24    1
    35    32    27   ar
    36    15    19    1
@<TRIPOS>MOLECULE
*****
 32 36 0 0 0
SMALL
GASTEIGER

@<TRIPOS>ATOM
      1 C          63.8971   95.7259   -3.8597 C.ar    1  UNL1        0.1056
      2 C          62.4112   95.9220   -3.8014 C.ar    1  UNL1        0.0214
      3 C          61.6244   95.3569   -2.6562 C.ar    1  UNL1        0.0379
      4 C          62.3236   94.5957   -1.5691 C.ar    1  UNL1        0.1342
      5 C          63.8096   94.3996   -1.6273 C.ar    1  UNL1        0.0132
      6 C          64.5964   94.9647   -2.7727 C.ar    1  UNL1        0.0171
      7 C          64.5089   93.6385   -0.5403 C.3     1  UNL1        0.0330
      8 C          63.7221   93.0734    0.6051 C.3     1  UNL1        0.0449
      9 C          62.2361   93.2695    0.6633 C.3     1  UNL1        0.1367
     10 C          62.9354   92.5083    1.7503 C.3     1  UNL1        0.0616
     11 C          62.1486   91.9433    2.8956 C.3     1  UNL1        0.0985
     12 N          60.6626   92.1394    2.9539 N.am    1  UNL1       -0.2640
     13 C          59.8759   91.5743    4.0992 C.2     1  UNL1        0.3039
     14 O          58.3899   91.7705    4.1575 O.2     1  UNL1       -0.2526
     15 N          60.5751   90.8132    5.1863 N.am    1  UNL1       -0.2901
     16 C          59.9634   92.9006    1.8669 C.3     1  UNL1        0.0985
     17 C          60.7502   93.4656    0.7216 C.3     1  UNL1        0.0616
     18 O          61.5369   94.0307   -0.4238 O.3     1  UNL1       -0.4828
     19 H          61.5504   90.6845    5.1480 H       1  UNL1        0.1509
     20 C          65.4707   96.8560   -6.1503 C.3     1  UNL1        0.1816
     21 S          64.6839   96.2909   -5.0050 S.O2    1  UNL1        0.0104
     22 O          63.5492   95.9830   -5.9364 O.2     1  UNL1       -0.1686
     23 O          65.8186   96.5988   -4.0736 O.2     1  UNL1       -0.1686
     24 C          59.7884   90.2481    6.3316 C.3     1  UNL1        0.0774
     25 C          58.4826   90.0692    7.0477 C.3     1  UNL1        0.0259
     26 C          59.7316   89.4483    7.5993 C.3     1  UNL1        0.0420
     27 C          60.4199   88.6280    8.6497 C.ar    1  UNL1       -0.0208
     28 C          60.2698   87.1356    8.6536 C.ar    1  UNL1       -0.0042
     29 C          60.9582   86.3153    9.7040 C.ar    1  UNL1       -0.0003
     30 C          61.7966   86.9875   10.7506 C.ar    1  UNL1       -0.0000
     31 C          61.9467   88.4800   10.7466 C.ar    1  UNL1       -0.0003
     32 C          61.2583   89.3003    9.6962 C.ar    1  UNL1       -0.0042
@<TRIPOS>BOND
     1    20    21    1
     2    21    22    2
     3    21    23    2
     4    21     1    1
     5     1     2   ar
     6     2     3   ar
     7     3     4   ar
     8     4     5   ar
     9     5     6   ar
    10     5     7    1
    11     7     8    1
    12     8     9    1
    13     9    10    1
    14    10    11    1
    15    11    12    1
    16    12    13   am
    17    13    14    2
    18    13    15   am
    19    24    15    1
    20    24    25    1
    21    25    26    1
    22    26    27    1
    23    27    28   ar
    24    28    29   ar
    25    29    30   ar
    26    30    31   ar
    27    31    32   ar
    28    12    16    1
    29    16    17    1
    30     9    18    1
    31     6     1   ar
    32    17     9    1
    33    18     4    1
    34    26    24    1
    35    32    27   ar
    36    15    19    1
@<TRIPOS>MOLECULE
*****
 32 36 0 0 0
SMALL
GASTEIGER

@<TRIPOS>ATOM
      1 C          60.2770   95.3235   -1.8509 C.ar    1  UNL1        0.1056
      2 C          58.8543   95.1385   -1.4130 C.ar    1  UNL1        0.0214
      3 C          58.5488   94.3723   -0.1602 C.ar    1  UNL1        0.0379
      4 C          59.6661   93.7911    0.6548 C.ar    1  UNL1        0.1342
      5 C          61.0887   93.9761    0.2169 C.ar    1  UNL1        0.0132
      6 C          61.3942   94.7423   -1.0360 C.ar    1  UNL1        0.0171
      7 C          62.2059   93.3949    1.0318 C.3     1  UNL1        0.0330
      8 C          61.9004   92.6287    2.2847 C.3     1  UNL1        0.0449
      9 C          60.4778   92.4437    2.7226 C.3     1  UNL1        0.1367
     10 C          61.5950   91.8625    3.5375 C.3     1  UNL1        0.0616
     11 C          61.2895   91.0963    4.7903 C.3     1  UNL1        0.0985
     12 N          59.8668   90.9113    5.2282 N.am    1  UNL1       -0.2640
     13 C          59.5613   90.1451    6.4811 C.2     1  UNL1        0.3039
     14 O          58.1386   89.9601    6.9190 O.2     1  UNL1       -0.2526
     15 N          60.6785   89.5639    7.2960 N.am    1  UNL1       -0.2901
     16 C          58.7496   91.4925    4.4133 C.3     1  UNL1        0.0985
     17 C          59.0551   92.2587    3.1605 C.3     1  UNL1        0.0616
     18 O          59.3606   93.0249    1.9076 O.3     1  UNL1       -0.4828
     19 H          61.6122   89.6854    7.0086 H       1  UNL1        0.1509
     20 C          60.8880   96.8559   -4.3566 C.3     1  UNL1        0.1816
     21 S          60.5825   96.0897   -3.1037 S.O2    1  UNL1        0.0104
     22 O          61.8926   95.3693   -3.2248 O.2     1  UNL1       -0.1686
     23 O          59.2724   96.8100   -2.9827 O.2     1  UNL1       -0.1686
     24 C          60.3730   88.7977    8.5489 C.3     1  UNL1        0.0774
     25 C          59.5282   88.5892    9.7706 C.3     1  UNL1        0.0259
     26 C          60.6888   87.6791    9.4971 C.3     1  UNL1        0.0420
     27 C          61.5411   86.5079    9.8866 C.ar    1  UNL1       -0.0208
     28 C          62.3735   85.8093    8.8526 C.ar    1  UNL1       -0.0042
     29 C          63.2258   84.6381    9.2421 C.ar    1  UNL1       -0.0003
     30 C          63.2459   84.1655   10.6657 C.ar    1  UNL1       -0.0000
     31 C          62.4136   84.8642   11.6996 C.ar    1  UNL1       -0.0003
     32 C          61.5612   86.0354   11.3101 C.ar    1  UNL1       -0.0042
@<TRIPOS>BOND
     1    20    21    1
     2    21    22    2
     3    21    23    2
     4    21     1    1
     5     1     2   ar
     6     2     3   ar
     7     3     4   ar
     8     4     5   ar
     9     5     6   ar
    10     5     7    1
    11     7     8    1
    12     8     9    1
    13     9    10    1
    14    10    11    1
    15    11    12    1
    16    12    13   am
    17    13    14    2
    18    13    15   am
    19    24    15    1
    20    24    25    1
    21    25    26    1
    22    26    27    1
    23    27    28   ar
    24    28    29   ar
    25    29    30   ar
    26    30    31   ar
    27    31    32   ar
    28    12    16    1
    29    16    17    1
    30     9    18    1
    31     6     1   ar
    32    17     9    1
    33    18     4    1
    34    26    24    1
    35    32    27   ar
    36    15    19    1
@<TRIPOS>MOLECULE
*****
 32 36 0 0 0
SMALL
GASTEIGER

@<TRIPOS>ATOM
      1 C          71.2927   72.0977   16.9964 C.ar    1  UNL1        0.1056
      2 C          72.4218   71.8134   16.0508 C.ar    1  UNL1        0.0214
      3 C          72.7559   72.7933   14.9654 C.ar    1  UNL1        0.0379
      4 C          71.9610   74.0576   14.8257 C.ar    1  UNL1        0.1342
      5 C          70.8318   74.3420   15.7713 C.ar    1  UNL1        0.0132
      6 C          70.4977   73.3620   16.8567 C.ar    1  UNL1        0.0171
      7 C          70.0369   75.6063   15.6316 C.3     1  UNL1        0.0330
      8 C          70.3710   76.5863   14.5462 C.3     1  UNL1        0.0449
      9 C          71.5001   76.3019   13.6006 C.3     1  UNL1        0.1367
     10 C          70.7052   77.5662   13.4608 C.3     1  UNL1        0.0616
     11 C          71.0393   78.5462   12.3755 C.3     1  UNL1        0.0985
     12 N          72.1684   78.2618   11.4299 N.am    1  UNL1       -0.2640
     13 C          72.5026   79.2418   10.3445 C.2     1  UNL1        0.3039
     14 O          73.6317   78.9575    9.3988 O.2     1  UNL1       -0.2526
     15 N          71.7076   80.5061   10.2048 N.am    1  UNL1       -0.2901
     16 C          72.9634   76.9975   11.5696 C.3     1  UNL1        0.0985
     17 C          72.6293   76.0176   12.6549 C.3     1  UNL1        0.0616
     18 O          72.2951   75.0376   13.7403 O.3     1  UNL1       -0.4828
     19 H          70.9665   80.6927   10.8254 H       1  UNL1        0.1509
     20 C          70.6244   70.1377   19.1671 C.3     1  UNL1        0.1816
     21 S          70.9585   71.1178   18.0818 S.O2    1  UNL1        0.0104
     22 O          70.3387   72.2211   18.8871 O.2     1  UNL1       -0.1686
     23 O          71.5783   70.0145   17.2764 O.2     1  UNL1       -0.1686
     24 C          72.0417   81.4861    9.1194 C.3     1  UNL1        0.0774
     25 C          72.2026   82.9025    8.6525 C.3     1  UNL1        0.0259
     26 C          72.4596   81.7672    7.7064 C.3     1  UNL1        0.0420
     27 C          72.8492   81.2739    6.3445 C.ar    1  UNL1       -0.0208
     28 C          73.0906   79.8110    6.1173 C.ar    1  UNL1       -0.0042
     29 C          73.4802   79.3178    4.7554 C.ar    1  UNL1       -0.0003
     30 C          73.6284   80.2875    3.6206 C.ar    1  UNL1       -0.0000
     31 C          73.3871   81.7504    3.8477 C.ar    1  UNL1       -0.0003
     32 C          72.9974   82.2436    5.2098 C.ar    1  UNL1       -0.0042
@<TRIPOS>BOND
     1    20    21    1
     2    21    22    2
     3    21    23    2
     4    21     1    1
     5     1     2   ar
     6     2     3   ar
     7     3     4   ar
     8     4     5   ar
     9     5     6   ar
    10     5     7    1
    11     7     8    1
    12     8     9    1
    13     9    10    1
    14    10    11    1
    15    11    12    1
    16    12    13   am
    17    13    14    2
    18    13    15   am
    19    24    15    1
    20    24    25    1
    21    25    26    1
    22    26    27    1
    23    27    28   ar
    24    28    29   ar
    25    29    30   ar
    26    30    31   ar
    27    31    32   ar
    28    12    16    1
    29    16    17    1
    30     9    18    1
    31     6     1   ar
    32    17     9    1
    33    18     4    1
    34    26    24    1
    35    32    27   ar
    36    15    19    1
@<TRIPOS>MOLECULE
*****
 32 36 0 0 0
SMALL
GASTEIGER

@<TRIPOS>ATOM
      1 C          63.4511   83.9997   13.7701 C.ar    1  UNL1        0.1056
      2 C          62.6842   83.1699   12.7835 C.ar    1  UNL1        0.0214
      3 C          62.0097   83.8262   11.6155 C.ar    1  UNL1        0.0379
      4 C          62.1020   85.3124   11.4341 C.ar    1  UNL1        0.1342
      5 C          62.8689   86.1422   12.4207 C.ar    1  UNL1        0.0132
      6 C          63.5435   85.4857   13.5887 C.ar    1  UNL1        0.0171
      7 C          62.9613   87.6283   12.2393 C.3     1  UNL1        0.0330
      8 C          62.2867   88.2847   11.0713 C.3     1  UNL1        0.0449
      9 C          61.5198   87.4549   10.0847 C.3     1  UNL1        0.1367
     10 C          61.6121   88.9410    9.9034 C.3     1  UNL1        0.0616
     11 C          60.9376   89.5973    8.7354 C.3     1  UNL1        0.0985
     12 N          60.1707   88.7676    7.7488 N.am    1  UNL1       -0.2640
     13 C          59.4961   89.4240    6.5808 C.2     1  UNL1        0.3039
     14 O          58.7292   88.5942    5.5942 O.2     1  UNL1       -0.2526
     15 N          59.5885   90.9101    6.3995 N.am    1  UNL1       -0.2901
     16 C          60.0783   87.2815    7.9302 C.3     1  UNL1        0.0985
     17 C          60.7529   86.6251    9.0982 C.3     1  UNL1        0.0616
     18 O          61.4275   85.9687   10.2662 O.3     1  UNL1       -0.4828
     19 H          60.0918   91.4547    7.0470 H       1  UNL1        0.1509
     20 C          64.8003   82.6870   16.1061 C.3     1  UNL1        0.1816
     21 S          64.1257   83.3433   14.9380 S.O2    1  UNL1        0.0104
     22 O          63.5058   82.0312   14.5587 O.2     1  UNL1       -0.1686
     23 O          64.7456   84.6555   15.3174 O.2     1  UNL1       -0.1686
     24 C          58.9139   91.5665    5.2315 C.3     1  UNL1        0.0774
     25 C          57.6656   92.0567    4.5596 C.3     1  UNL1        0.0259
     26 C          58.9938   92.2131    3.8804 C.3     1  UNL1        0.0420
     27 C          59.8068   92.6768    2.7082 C.ar    1  UNL1       -0.0208
     28 C          59.1225   93.1201    1.4492 C.ar    1  UNL1       -0.0042
     29 C          59.9355   93.5838    0.2770 C.ar    1  UNL1       -0.0003
     30 C          61.4329   93.6041    0.3638 C.ar    1  UNL1       -0.0000
     31 C          62.1172   93.1607    1.6228 C.ar    1  UNL1       -0.0003
     32 C          61.3041   92.6971    2.7950 C.ar    1  UNL1       -0.0042
@<TRIPOS>BOND
     1    20    21    1
     2    21    22    2
     3    21    23    2
     4    21     1    1
     5     1     2   ar
     6     2     3   ar
     7     3     4   ar
     8     4     5   ar
     9     5     6   ar
    10     5     7    1
    11     7     8    1
    12     8     9    1
    13     9    10    1
    14    10    11    1
    15    11    12    1
    16    12    13   am
    17    13    14    2
    18    13    15   am
    19    24    15    1
    20    24    25    1
    21    25    26    1
    22    26    27    1
    23    27    28   ar
    24    28    29   ar
    25    29    30   ar
    26    30    31   ar
    27    31    32   ar
    28    12    16    1
    29    16    17    1
    30     9    18    1
    31     6     1   ar
    32    17     9    1
    33    18     4    1
    34    26    24    1
    35    32    27   ar
    36    15    19    1
@<TRIPOS>MOLECULE
*****
 32 36 0 0 0
SMALL
GASTEIGER

@<TRIPOS>ATOM
      1 C          62.2872   82.3965   13.7574 C.ar    1  UNL1        0.1056
      2 C          61.8430   82.9374   12.4307 C.ar    1  UNL1        0.0214
      3 C          62.1571   84.3554   12.0557 C.ar    1  UNL1        0.0379
      4 C          62.9155   85.2325   13.0073 C.ar    1  UNL1        0.1342
      5 C          63.3598   84.6916   14.3340 C.ar    1  UNL1        0.0132
      6 C          63.0456   83.2735   14.7090 C.ar    1  UNL1        0.0171
      7 C          64.1182   85.5686   15.2856 C.3     1  UNL1        0.0330
      8 C          64.4324   86.9866   14.9106 C.3     1  UNL1        0.0449
      9 C          63.9881   87.5275   13.5839 C.3     1  UNL1        0.1367
     10 C          64.7465   88.4046   14.5355 C.3     1  UNL1        0.0616
     11 C          65.0607   89.8225   14.1605 C.3     1  UNL1        0.0985
     12 N          64.6164   90.3634   12.8338 N.am    1  UNL1       -0.2640
     13 C          64.9306   91.7814   12.4588 C.2     1  UNL1        0.3039
     14 O          64.4863   92.3224   11.1321 O.2     1  UNL1       -0.2526
     15 N          65.6890   92.6585   13.4104 N.am    1  UNL1       -0.2901
     16 C          63.8580   89.4864   11.8822 C.3     1  UNL1        0.0985
     17 C          63.5439   88.0685   12.2572 C.3     1  UNL1        0.0616
     18 O          63.2297   86.6504   12.6323 O.3     1  UNL1       -0.4828
     19 H          65.9806   92.3034   14.2811 H       1  UNL1        0.1509
     20 C          61.6590   79.5605   14.5075 C.3     1  UNL1        0.1816
     21 S          61.9731   80.9786   14.1324 S.O2    1  UNL1        0.0104
     22 O          60.5067   81.2907   14.0843 O.2     1  UNL1       -0.1686
     23 O          63.4394   80.6664   14.1806 O.2     1  UNL1       -0.1686
     24 C          66.0032   94.0765   13.0354 C.3     1  UNL1        0.0774
     25 C          66.3506   95.4796   13.4360 C.3     1  UNL1        0.0259
     26 C          66.1999   95.1294   11.9853 C.3     1  UNL1        0.0420
     27 C          66.2264   95.5350   10.5414 C.ar    1  UNL1       -0.0208
     28 C          65.1682   96.4498    9.9998 C.ar    1  UNL1       -0.0042
     29 C          65.1948   96.8555    8.5560 C.ar    1  UNL1       -0.0003
     30 C          66.2796   96.3463    7.6537 C.ar    1  UNL1       -0.0000
     31 C          67.3378   95.4315    8.1953 C.ar    1  UNL1       -0.0003
     32 C          67.3112   95.0259    9.6392 C.ar    1  UNL1       -0.0042
@<TRIPOS>BOND
     1    20    21    1
     2    21    22    2
     3    21    23    2
     4    21     1    1
     5     1     2   ar
     6     2     3   ar
     7     3     4   ar
     8     4     5   ar
     9     5     6   ar
    10     5     7    1
    11     7     8    1
    12     8     9    1
    13     9    10    1
    14    10    11    1
    15    11    12    1
    16    12    13   am
    17    13    14    2
    18    13    15   am
    19    24    15    1
    20    24    25    1
    21    25    26    1
    22    26    27    1
    23    27    28   ar
    24    28    29   ar
    25    29    30   ar
    26    30    31   ar
    27    31    32   ar
    28    12    16    1
    29    16    17    1
    30     9    18    1
    31     6     1   ar
    32    17     9    1
    33    18     4    1
    34    26    24    1
    35    32    27   ar
    36    15    19    1
