@<TRIPOS>MOLECULE
*****
 22 24 0 0 0
SMALL
GASTEIGER

@<TRIPOS>ATOM
      1 N          62.7226   85.5085   12.9917 N.pl3   1  UNL1       -0.2167
      2 H          62.2734   85.6610   13.8544 H       1  UNL1        0.2923
      3 C          62.3846   86.3660   11.8082 C.2     1  UNL1        0.3240
      4 N          61.6902   85.7664   10.6216 N.2     1  UNL1       -0.0385
      5 C          61.3523   86.6239    9.4381 C.2     1  UNL1        0.2351
      6 C          61.7087   88.0809    9.4414 C.2     1  UNL1        0.0484
      7 C          62.4031   88.6805   10.6281 C.2     1  UNL1        0.0125
      8 C          62.8758   90.0747   10.9158 C.2     1  UNL1       -0.0101
      9 C          62.7418   91.2571   10.0025 C.3     1  UNL1        0.0320
     10 C          63.5058   90.0789   12.2771 C.2     1  UNL1        0.0509
     11 C          64.1126   91.2663   12.9641 C.3     1  UNL1        0.0513
     12 N          63.4226   88.6873   12.8307 N.2     1  UNL1       -0.2603
     13 C          62.7411   87.8230   11.8115 C.3     1  UNL1        0.2295
     14 C          63.7450   84.4188   12.8608 C.3     1  UNL1        0.2258
     15 C          62.6054   83.0733   15.2880 C.3     1  UNL1        0.0308
     16 C          62.7386   82.3128   14.0019 C.ar    1  UNL1       -0.0223
     17 C          62.3021   80.8796   13.9294 C.ar    1  UNL1       -0.0045
     18 C          62.4353   80.1191   12.6434 C.ar    1  UNL1       -0.0007
     19 C          63.0051   80.7918   11.4299 C.ar    1  UNL1       -0.0045
     20 C          63.4417   82.2250   11.5023 C.ar    1  UNL1       -0.0223
     21 C          64.0115   82.8978   10.2887 C.3     1  UNL1        0.0308
     22 C          63.3084   82.9856   12.7884 C.ar    1  UNL1        0.0162
@<TRIPOS>BOND
     1    15    16    1
     2    16    17   ar
     3    17    18   ar
     4    18    19   ar
     5    19    20   ar
     6    20    21    1
     7    20    22   ar
     8    22    14    1
     9    14     1    1
    10     1     3    1
    11     3     4    2
    12     4     5    1
    13     5     6    2
    14     6     7    1
    15     7     8    2
    16     8     9    1
    17     8    10    1
    18    10    11    1
    19    10    12    2
    20    12    13    1
    21    22    16   ar
    22    13     3    1
    23    13     7    1
    24     1     2    1
@<TRIPOS>MOLECULE
*****
 22 24 0 0 0
SMALL
GASTEIGER

@<TRIPOS>ATOM
      1 N          62.7448   85.5103   13.0001 N.pl3   1  UNL1       -0.2167
      2 H          62.3044   85.6679   13.8663 H       1  UNL1        0.2923
      3 C          62.4010   86.3661   11.8171 C.2     1  UNL1        0.3240
      4 N          61.7044   85.7641   10.6330 N.2     1  UNL1       -0.0385
      5 C          61.3606   86.6200    9.4501 C.2     1  UNL1        0.2351
      6 C          61.7135   88.0779    9.4513 C.2     1  UNL1        0.0484
      7 C          62.4101   88.6799   10.6355 C.2     1  UNL1        0.0125
      8 C          62.8801   90.0755   10.9209 C.2     1  UNL1       -0.0101
      9 C          62.7404   91.2570   10.0073 C.3     1  UNL1        0.0320
     10 C          63.5144   90.0821   12.2802 C.2     1  UNL1        0.0509
     11 C          64.1203   91.2715   12.9646 C.3     1  UNL1        0.0513
     12 N          63.4364   88.6907   12.8349 N.2     1  UNL1       -0.2603
     13 C          62.7539   87.8241   11.8183 C.3     1  UNL1        0.2295
     14 C          63.7598   84.4143   12.8631 C.3     1  UNL1        0.2258
     15 C          64.0016   82.8840   10.2941 C.3     1  UNL1        0.0308
     16 C          63.4352   82.2183   11.5132 C.ar    1  UNL1       -0.0223
     17 C          62.9897   80.7874   11.4478 C.ar    1  UNL1       -0.0045
     18 C          62.4234   80.1218   12.6668 C.ar    1  UNL1       -0.0007
     19 C          62.3025   80.8869   13.9513 C.ar    1  UNL1       -0.0045
     20 C          62.7480   82.3177   14.0168 C.ar    1  UNL1       -0.0223
     21 C          62.6271   83.0829   15.3013 C.3     1  UNL1        0.0308
     22 C          63.3143   82.9835   12.7977 C.ar    1  UNL1        0.0162
@<TRIPOS>BOND
     1    15    16    1
     2    16    17   ar
     3    17    18   ar
     4    18    19   ar
     5    19    20   ar
     6    20    21    1
     7    20    22   ar
     8    22    14    1
     9    14     1    1
    10     1     3    1
    11     3     4    2
    12     4     5    1
    13     5     6    2
    14     6     7    1
    15     7     8    2
    16     8     9    1
    17     8    10    1
    18    10    11    1
    19    10    12    2
    20    12    13    1
    21    22    16   ar
    22    13     3    1
    23    13     7    1
    24     1     2    1
@<TRIPOS>MOLECULE
*****
 22 24 0 0 0
SMALL
GASTEIGER

@<TRIPOS>ATOM
      1 N          62.7881   85.5196   12.5494 N.pl3   1  UNL1       -0.2167
      2 H          62.4147   86.0531   13.2877 H       1  UNL1        0.2923
      3 C          62.4354   85.8531   11.1300 C.2     1  UNL1        0.3240
      4 N          62.9084   84.9712   10.0127 N.2     1  UNL1       -0.0385
      5 C          62.5557   85.3047    8.5934 C.2     1  UNL1        0.2351
      6 C          61.7301   86.5201    8.2915 C.2     1  UNL1        0.0484
      7 C          61.2572   87.4020    9.4088 C.2     1  UNL1        0.0125
      8 C          60.4352   88.6567    9.4180 C.2     1  UNL1       -0.0101
      9 C          59.8681   89.3480    8.2137 C.3     1  UNL1        0.0320
     10 C          60.2798   89.0986   10.8430 C.2     1  UNL1        0.0509
     11 C          59.5300   90.3096   11.3138 C.3     1  UNL1        0.0513
     12 N          61.0058   88.1171   11.7145 N.2     1  UNL1       -0.2603
     13 C          61.6098   87.0685   10.8281 C.3     1  UNL1        0.2295
     14 C          63.7096   84.3733   12.8437 C.3     1  UNL1        0.2258
     15 C          64.1828   82.2881   10.7394 C.3     1  UNL1        0.0308
     16 C          63.3912   81.9483   11.9673 C.ar    1  UNL1       -0.0223
     17 C          62.8362   80.5658   12.1432 C.ar    1  UNL1       -0.0045
     18 C          62.0446   80.2260   13.3711 C.ar    1  UNL1       -0.0007
     19 C          61.8080   81.2686   14.4233 C.ar    1  UNL1       -0.0045
     20 C          62.3630   82.6510   14.2475 C.ar    1  UNL1       -0.0223
     21 C          62.1264   83.6936   15.2996 C.3     1  UNL1        0.0308
     22 C          63.1546   82.9909   13.0195 C.ar    1  UNL1        0.0162
@<TRIPOS>BOND
     1    15    16    1
     2    16    17   ar
     3    17    18   ar
     4    18    19   ar
     5    19    20   ar
     6    20    21    1
     7    20    22   ar
     8    22    14    1
     9    14     1    1
    10     1     3    1
    11     3     4    2
    12     4     5    1
    13     5     6    2
    14     6     7    1
    15     7     8    2
    16     8     9    1
    17     8    10    1
    18    10    11    1
    19    10    12    2
    20    12    13    1
    21    22    16   ar
    22    13     3    1
    23    13     7    1
    24     1     2    1
@<TRIPOS>MOLECULE
*****
 22 24 0 0 0
SMALL
GASTEIGER

@<TRIPOS>ATOM
      1 N          63.4601   88.8059   13.1152 N.pl3   1  UNL1       -0.2167
      2 H          64.0140   88.5863   13.8989 H       1  UNL1        0.2923
      3 C          62.9799   87.7135   12.2062 C.2     1  UNL1        0.3240
      4 N          62.3680   88.0559   10.8802 N.2     1  UNL1       -0.0385
      5 C          61.8879   86.9635    9.9714 C.2     1  UNL1        0.2351
      6 C          62.0195   85.5287   10.3885 C.2     1  UNL1        0.0484
      7 C          62.6313   85.1863   11.7145 C.2     1  UNL1        0.0125
      8 C          62.8912   83.8729   12.3909 C.2     1  UNL1       -0.0101
      9 C          62.5672   82.5169   11.8375 C.3     1  UNL1        0.0320
     10 C          63.5320   84.1536   13.7178 C.2     1  UNL1        0.0509
     11 C          63.9613   83.1274   14.7243 C.3     1  UNL1        0.0513
     12 N          63.6682   85.6404   13.8615 N.2     1  UNL1       -0.2603
     13 C          63.1115   86.2787   12.6234 C.3     1  UNL1        0.2295
     14 C          63.0962   90.2329   12.8301 C.3     1  UNL1        0.2258
     15 C          63.1987   91.3285   10.0392 C.3     1  UNL1        0.0308
     16 C          64.2135   91.7648   11.0539 C.ar    1  UNL1       -0.0223
     17 C          65.2796   92.7490   10.6732 C.ar    1  UNL1       -0.0045
     18 C          66.2944   93.1853   11.6880 C.ar    1  UNL1       -0.0007
     19 C          66.2432   92.6375   13.0834 C.ar    1  UNL1       -0.0045
     20 C          65.1771   91.6534   13.4642 C.ar    1  UNL1       -0.0223
     21 C          65.1259   91.1056   14.8596 C.3     1  UNL1        0.0308
     22 C          64.1623   91.2170   12.4494 C.ar    1  UNL1        0.0162
@<TRIPOS>BOND
     1    15    16    1
     2    16    17   ar
     3    17    18   ar
     4    18    19   ar
     5    19    20   ar
     6    20    21    1
     7    20    22   ar
     8    22    14    1
     9    14     1    1
    10     1     3    1
    11     3     4    2
    12     4     5    1
    13     5     6    2
    14     6     7    1
    15     7     8    2
    16     8     9    1
    17     8    10    1
    18    10    11    1
    19    10    12    2
    20    12    13    1
    21    22    16   ar
    22    13     3    1
    23    13     7    1
    24     1     2    1
@<TRIPOS>MOLECULE
*****
 22 24 0 0 0
SMALL
GASTEIGER

@<TRIPOS>ATOM
      1 N          61.8683   89.2877   12.3266 N.pl3   1  UNL1       -0.2167
      2 H          60.9056   89.4886   12.3732 H       1  UNL1        0.2923
      3 C          62.8163   89.9299   13.2956 C.2     1  UNL1        0.3240
      4 N          62.7404   89.5919   14.7550 N.2     1  UNL1       -0.0385
      5 C          63.6884   90.2341   15.7238 C.2     1  UNL1        0.2351
      6 C          64.7124   91.2143   15.2333 C.2     1  UNL1        0.0484
      7 C          64.7884   91.5523   13.7739 C.2     1  UNL1        0.0125
      8 C          65.6853   92.4746   13.0026 C.2     1  UNL1       -0.0101
      9 C          66.7831   93.3206   13.5762 C.3     1  UNL1        0.0320
     10 C          65.2915   92.4024   11.5569 C.2     1  UNL1        0.0509
     11 C          65.9266   93.1635   10.4311 C.3     1  UNL1        0.0513
     12 N          64.1513   91.4355   11.4348 N.2     1  UNL1       -0.2603
     13 C          63.8403   90.9102   12.8050 C.3     1  UNL1        0.2295
     14 C          62.3870   88.3394   11.2865 C.3     1  UNL1        0.2258
     15 C          62.3809   85.4828   10.3701 C.3     1  UNL1        0.0308
     16 C          61.5020   86.4904    9.6904 C.ar    1  UNL1       -0.0223
     17 C          60.6199   86.0697    8.5523 C.ar    1  UNL1       -0.0045
     18 C          59.7409   87.0773    7.8725 C.ar    1  UNL1       -0.0007
     19 C          59.7439   88.5056    8.3308 C.ar    1  UNL1       -0.0045
     20 C          60.6259   88.9263    9.4687 C.ar    1  UNL1       -0.0223
     21 C          60.6290   90.3546    9.9269 C.3     1  UNL1        0.0308
     22 C          61.5050   87.9187   10.1486 C.ar    1  UNL1        0.0162
@<TRIPOS>BOND
     1    15    16    1
     2    16    17   ar
     3    17    18   ar
     4    18    19   ar
     5    19    20   ar
     6    20    21    1
     7    20    22   ar
     8    22    14    1
     9    14     1    1
    10     1     3    1
    11     3     4    2
    12     4     5    1
    13     5     6    2
    14     6     7    1
    15     7     8    2
    16     8     9    1
    17     8    10    1
    18    10    11    1
    19    10    12    2
    20    12    13    1
    21    22    16   ar
    22    13     3    1
    23    13     7    1
    24     1     2    1
@<TRIPOS>MOLECULE
*****
 22 24 0 0 0
SMALL
GASTEIGER

@<TRIPOS>ATOM
      1 N          63.8090   85.1816   13.6068 N.pl3   1  UNL1       -0.2167
      2 H          64.7305   84.9211   13.3784 H       1  UNL1        0.2923
      3 C          63.5466   86.0249   14.8193 C.2     1  UNL1        0.3240
      4 N          63.1048   85.3805   16.0997 N.2     1  UNL1       -0.0385
      5 C          62.8425   86.2238   17.3122 C.2     1  UNL1        0.2351
      6 C          63.0220   87.7114   17.2442 C.2     1  UNL1        0.0484
      7 C          63.4638   88.3558   15.9638 C.2     1  UNL1        0.0125
      8 C          63.7240   89.7871   15.5980 C.2     1  UNL1       -0.0101
      9 C          63.5854   90.9695   16.5106 C.3     1  UNL1        0.0320
     10 C          64.1471   89.8284   14.1595 C.2     1  UNL1        0.0509
     11 C          64.5059   91.0594   13.3810 C.3     1  UNL1        0.0513
     12 N          64.1485   88.4227   13.6362 N.2     1  UNL1       -0.2603
     13 C          63.7262   87.5126   14.7514 C.3     1  UNL1        0.2295
     14 C          62.6672   84.7353   12.7424 C.3     1  UNL1        0.2258
     15 C          61.1943   87.0199   11.4731 C.3     1  UNL1        0.0308
     16 C          61.9922   86.0768   10.6223 C.ar    1  UNL1       -0.0223
     17 C          62.0537   86.2760    9.1368 C.ar    1  UNL1       -0.0045
     18 C          62.8515   85.3329    8.2861 C.ar    1  UNL1       -0.0007
     19 C          63.5880   84.1905    8.9207 C.ar    1  UNL1       -0.0045
     20 C          63.5266   83.9913   10.4061 C.ar    1  UNL1       -0.0223
     21 C          64.2630   82.8490   11.0407 C.3     1  UNL1        0.0308
     22 C          62.7287   84.9345   11.2570 C.ar    1  UNL1        0.0162
@<TRIPOS>BOND
     1    15    16    1
     2    16    17   ar
     3    17    18   ar
     4    18    19   ar
     5    19    20   ar
     6    20    21    1
     7    20    22   ar
     8    22    14    1
     9    14     1    1
    10     1     3    1
    11     3     4    2
    12     4     5    1
    13     5     6    2
    14     6     7    1
    15     7     8    2
    16     8     9    1
    17     8    10    1
    18    10    11    1
    19    10    12    2
    20    12    13    1
    21    22    16   ar
    22    13     3    1
    23    13     7    1
    24     1     2    1
@<TRIPOS>MOLECULE
*****
 22 24 0 0 0
SMALL
GASTEIGER

@<TRIPOS>ATOM
      1 N          62.7882   89.4832   11.1732 N.pl3   1  UNL1       -0.2167
      2 H          62.8011   90.0491   10.3677 H       1  UNL1        0.2923
      3 C          63.4735   89.9447   12.4252 C.2     1  UNL1        0.3240
      4 N          63.2593   89.2065   13.7132 N.2     1  UNL1       -0.0385
      5 C          63.9446   89.6681   14.9651 C.2     1  UNL1        0.2351
      6 C          64.8441   90.8679   14.9290 C.2     1  UNL1        0.0484
      7 C          65.0582   91.6062   13.6409 C.2     1  UNL1        0.0125
      8 C          65.8815   92.8130   13.3007 C.2     1  UNL1       -0.0101
      9 C          66.7319   93.5978   14.2551 C.3     1  UNL1        0.0320
     10 C          65.7050   93.0973   11.8384 C.2     1  UNL1        0.0509
     11 C          66.3480   94.2163   11.0739 C.3     1  UNL1        0.0513
     12 N          64.7727   92.0662   11.2750 N.2     1  UNL1       -0.2603
     13 C          64.3730   91.1446   12.3891 C.3     1  UNL1        0.2295
     14 C          62.0832   88.1594   11.1486 C.3     1  UNL1        0.2258
     15 C          60.0279   90.0390   10.0339 C.3     1  UNL1        0.0308
     16 C          60.2481   88.7017    9.3913 C.ar    1  UNL1       -0.0223
     17 C          59.4406   88.3041    8.1913 C.ar    1  UNL1       -0.0045
     18 C          59.6608   86.9668    7.5487 C.ar    1  UNL1       -0.0007
     19 C          60.6884   86.0269    8.1060 C.ar    1  UNL1       -0.0045
     20 C          61.4959   86.4244    9.3060 C.ar    1  UNL1       -0.0223
     21 C          62.5235   85.4846    9.8633 C.3     1  UNL1        0.0308
     22 C          61.2757   87.7619    9.9486 C.ar    1  UNL1        0.0162
@<TRIPOS>BOND
     1    15    16    1
     2    16    17   ar
     3    17    18   ar
     4    18    19   ar
     5    19    20   ar
     6    20    21    1
     7    20    22   ar
     8    22    14    1
     9    14     1    1
    10     1     3    1
    11     3     4    2
    12     4     5    1
    13     5     6    2
    14     6     7    1
    15     7     8    2
    16     8     9    1
    17     8    10    1
    18    10    11    1
    19    10    12    2
    20    12    13    1
    21    22    16   ar
    22    13     3    1
    23    13     7    1
    24     1     2    1
@<TRIPOS>MOLECULE
*****
 22 24 0 0 0
SMALL
GASTEIGER

@<TRIPOS>ATOM
      1 N          62.4063   89.9142   11.9757 N.pl3   1  UNL1       -0.2167
      2 H          61.7670   90.6359   11.7766 H       1  UNL1        0.2923
      3 C          62.1651   88.5314   11.4466 C.2     1  UNL1        0.3240
      4 N          62.7235   87.3430   12.1716 N.2     1  UNL1       -0.0385
      5 C          62.4823   85.9603   11.6425 C.2     1  UNL1        0.2351
      6 C          61.6826   85.7661   10.3884 C.2     1  UNL1        0.0484
      7 C          61.1242   86.9545    9.6634 C.2     1  UNL1        0.0125
      8 C          60.3039   87.0732    8.4132 C.2     1  UNL1       -0.0101
      9 C          59.8322   85.9356    7.5569 C.3     1  UNL1        0.0320
     10 C          60.0382   88.5293    8.1696 C.2     1  UNL1        0.0509
     11 C          59.2540   89.1033    7.0269 C.3     1  UNL1        0.0513
     12 N          60.6942   89.3105    9.2693 N.2     1  UNL1       -0.2603
     13 C          61.3654   88.3372   10.1925 C.3     1  UNL1        0.2295
     14 C          63.6216   90.1972   12.8082 C.3     1  UNL1        0.2258
     15 C          63.4827   91.4501   10.0858 C.3     1  UNL1        0.0308
     16 C          64.4372   91.9871   11.1108 C.ar    1  UNL1       -0.0223
     17 C          65.3224   93.1505   10.7745 C.ar    1  UNL1       -0.0045
     18 C          66.2769   93.6875   11.7994 C.ar    1  UNL1       -0.0007
     19 C          66.3464   93.0610   13.1606 C.ar    1  UNL1       -0.0045
     20 C          65.4613   91.8977   13.4969 C.ar    1  UNL1       -0.0223
     21 C          65.5307   91.2712   14.8580 C.3     1  UNL1        0.0308
     22 C          64.5067   91.3606   12.4719 C.ar    1  UNL1        0.0162
@<TRIPOS>BOND
     1    15    16    1
     2    16    17   ar
     3    17    18   ar
     4    18    19   ar
     5    19    20   ar
     6    20    21    1
     7    20    22   ar
     8    22    14    1
     9    14     1    1
    10     1     3    1
    11     3     4    2
    12     4     5    1
    13     5     6    2
    14     6     7    1
    15     7     8    2
    16     8     9    1
    17     8    10    1
    18    10    11    1
    19    10    12    2
    20    12    13    1
    21    22    16   ar
    22    13     3    1
    23    13     7    1
    24     1     2    1
@<TRIPOS>MOLECULE
*****
 22 24 0 0 0
SMALL
GASTEIGER

@<TRIPOS>ATOM
      1 N          60.3667   89.1245   11.1850 N.pl3   1  UNL1       -0.2167
      2 H          59.5036   89.5883   11.0895 H       1  UNL1        0.2923
      3 C          61.6421   89.9133   11.2226 C.2     1  UNL1        0.3240
      4 N          62.1660   90.5521    9.9707 N.2     1  UNL1       -0.0385
      5 C          63.4413   91.3409   10.0084 C.2     1  UNL1        0.2351
      6 C          64.1926   91.4909   11.2980 C.2     1  UNL1        0.0484
      7 C          63.6686   90.8521   12.5499 C.2     1  UNL1        0.0125
      8 C          64.1875   90.8274   13.9571 C.2     1  UNL1       -0.0101
      9 C          65.4409   91.4904   14.4463 C.3     1  UNL1        0.0320
     10 C          63.2328   90.0233   14.7891 C.2     1  UNL1        0.0509
     11 C          63.3641   89.7411   16.2565 C.3     1  UNL1        0.0513
     12 N          62.1240   89.5510   13.8961 N.2     1  UNL1       -0.2603
     13 C          62.3933   90.0633   12.5122 C.3     1  UNL1        0.2295
     14 C          60.4065   87.6289   11.2927 C.3     1  UNL1        0.2258
     15 C          59.4368   87.7458    8.4561 C.3     1  UNL1        0.0308
     16 C          60.6060   86.8769    8.8138 C.ar    1  UNL1       -0.0223
     17 C          61.2904   86.0665    7.7532 C.ar    1  UNL1       -0.0045
     18 C          62.4596   85.1976    8.1109 C.ar    1  UNL1       -0.0007
     19 C          62.9445   85.1391    9.5292 C.ar    1  UNL1       -0.0045
     20 C          62.2601   85.9495   10.5898 C.ar    1  UNL1       -0.0223
     21 C          62.7450   85.8910   12.0080 C.3     1  UNL1        0.0308
     22 C          61.0909   86.8185   10.2321 C.ar    1  UNL1        0.0162
@<TRIPOS>BOND
     1    15    16    1
     2    16    17   ar
     3    17    18   ar
     4    18    19   ar
     5    19    20   ar
     6    20    21    1
     7    20    22   ar
     8    22    14    1
     9    14     1    1
    10     1     3    1
    11     3     4    2
    12     4     5    1
    13     5     6    2
    14     6     7    1
    15     7     8    2
    16     8     9    1
    17     8    10    1
    18    10    11    1
    19    10    12    2
    20    12    13    1
    21    22    16   ar
    22    13     3    1
    23    13     7    1
    24     1     2    1
