@<TRIPOS>MOLECULE
*****
 27 30 0 0 0
SMALL
GASTEIGER

@<TRIPOS>ATOM
      1 C          62.5915   88.9622   12.0488 C.ar    1  UNL1        0.0673
      2 C          63.0674   87.5401   12.0113 C.ar    1  UNL1        0.0365
      3 C          62.2448   86.4918   11.3226 C.ar    1  UNL1        0.0849
      4 N          60.9463   86.8656   10.6712 N.ar    1  UNL1       -0.2440
      5 C          60.4705   88.2876   10.7086 C.ar    1  UNL1        0.0960
      6 C          61.2931   89.3359   11.3974 C.ar    1  UNL1        0.0135
      7 C          60.8172   90.7579   11.4348 C.3     1  UNL1        0.0342
      8 N          64.5279   91.3074   14.4603 N.ar    1  UNL1       -0.2782
      9 C          63.6515   90.1151   14.2150 C.ar    1  UNL1        0.3354
     10 O          63.1078   89.1898   15.2630 O.2     1  UNL1       -0.2459
     11 N          63.4142   90.0104   12.7376 N.ar    1  UNL1       -0.2590
     12 C          64.1439   91.1381   12.0698 C.ar    1  UNL1        0.0871
     13 C          64.2706   91.5386   10.6299 C.ar    1  UNL1        0.0398
     14 C          65.0856   92.7406   10.2546 C.ar    1  UNL1        0.1005
     15 N          65.7739   93.5422   11.3194 N.ar    1  UNL1       -0.2407
     16 C          65.6473   93.1417   12.7593 C.ar    1  UNL1        0.1176
     17 C          64.8323   91.9397   13.1346 C.ar    1  UNL1        0.0992
     18 C          66.3749   92.4030   15.9225 C.3     1  UNL1        0.0266
     19 C          65.0146   91.7839   15.7968 C.3     1  UNL1        0.1107
     20 C          62.7207   85.0698   11.2852 C.ar    1  UNL1        0.0460
     21 C          62.5897   84.2028   12.5022 C.ar    1  UNL1        0.0151
     22 C          63.0656   82.7808   12.4647 C.ar    1  UNL1        0.0579
     23 CL         62.9347   81.9138   13.6817 Cl      1  UNL1       -0.0822
     24 C          63.6725   82.2258   11.2102 C.ar    1  UNL1        0.0137
     25 C          63.8035   83.0928    9.9932 C.ar    1  UNL1        0.0306
     26 C          63.3275   84.5149   10.0307 C.ar    1  UNL1        0.1416
     27 F          63.4585   85.3819    8.8137 F       1  UNL1       -0.2041
@<TRIPOS>BOND
     1    18    19    1
     2    19     8    1
     3     8     9   ar
     4     9    10    2
     5     9    11   ar
     6    11     1    1
     7     1     2   ar
     8     2     3   ar
     9     3    20    1
    10    20    21   ar
    11    21    22   ar
    12    22    23    1
    13    22    24   ar
    14    24    25   ar
    15    25    26   ar
    16    26    27    1
    17     3     4   ar
    18     4     5   ar
    19     5     6   ar
    20     6     7    1
    21    11    12   ar
    22    12    13   ar
    23    13    14   ar
    24    14    15   ar
    25    15    16   ar
    26    16    17   ar
    27    17     8   ar
    28     6     1   ar
    29    17    12   ar
    30    26    20   ar
@<TRIPOS>MOLECULE
*****
 27 30 0 0 0
SMALL
GASTEIGER

@<TRIPOS>ATOM
      1 C          62.3753   88.9673   11.5926 C.ar    1  UNL1        0.0673
      2 C          62.9392   87.5775   11.6214 C.ar    1  UNL1        0.0365
      3 C          62.0901   86.4148   11.2007 C.ar    1  UNL1        0.0849
      4 N          60.6772   86.6417   10.7511 N.ar    1  UNL1       -0.2440
      5 C          60.1133   88.0313   10.7223 C.ar    1  UNL1        0.0960
      6 C          60.9624   89.1941   11.1431 C.ar    1  UNL1        0.0135
      7 C          60.3984   90.5838   11.1142 C.3     1  UNL1        0.0342
      8 N          64.5937   92.1327   11.9447 N.ar    1  UNL1       -0.2782
      9 C          63.8250   91.1587   11.1018 C.ar    1  UNL1        0.3354
     10 O          63.6822   91.2052    9.6094 O.2     1  UNL1       -0.2459
     11 N          63.2243   90.1301   12.0134 N.ar    1  UNL1       -0.2590
     12 C          63.6218   90.4683   13.4197 C.ar    1  UNL1        0.0871
     13 C          63.3223   89.8092   14.7334 C.ar    1  UNL1        0.0398
     14 C          63.8692   90.3878   16.0047 C.ar    1  UNL1        0.1005
     15 N          64.7156   91.6255   15.9622 N.ar    1  UNL1       -0.2407
     16 C          65.0150   92.2846   14.6485 C.ar    1  UNL1        0.1176
     17 C          64.4681   91.7060   13.3773 C.ar    1  UNL1        0.0992
     18 C          66.5768   93.1312   10.5955 C.3     1  UNL1        0.0266
     19 C          65.3545   93.3242   11.4432 C.3     1  UNL1        0.1107
     20 C          62.6541   85.0251   11.2295 C.ar    1  UNL1        0.0460
     21 C          62.5633   84.2047   12.4819 C.ar    1  UNL1        0.0151
     22 C          63.1273   82.8150   12.5106 C.ar    1  UNL1        0.0579
     23 CL         63.0365   81.9946   13.7631 Cl      1  UNL1       -0.0822
     24 C          63.7820   82.2458   11.2870 C.ar    1  UNL1        0.0137
     25 C          63.8728   83.0663   10.0345 C.ar    1  UNL1        0.0306
     26 C          63.3088   84.4560   10.0058 C.ar    1  UNL1        0.1416
     27 F          63.3995   85.2765    8.7534 F       1  UNL1       -0.2041
@<TRIPOS>BOND
     1    18    19    1
     2    19     8    1
     3     8     9   ar
     4     9    10    2
     5     9    11   ar
     6    11     1    1
     7     1     2   ar
     8     2     3   ar
     9     3    20    1
    10    20    21   ar
    11    21    22   ar
    12    22    23    1
    13    22    24   ar
    14    24    25   ar
    15    25    26   ar
    16    26    27    1
    17     3     4   ar
    18     4     5   ar
    19     5     6   ar
    20     6     7    1
    21    11    12   ar
    22    12    13   ar
    23    13    14   ar
    24    14    15   ar
    25    15    16   ar
    26    16    17   ar
    27    17     8   ar
    28     6     1   ar
    29    17    12   ar
    30    26    20   ar
@<TRIPOS>MOLECULE
*****
 27 30 0 0 0
SMALL
GASTEIGER

@<TRIPOS>ATOM
      1 C          62.5084   86.9869   11.6367 C.ar    1  UNL1        0.0673
      2 C          63.3881   87.9748   12.3441 C.ar    1  UNL1        0.0365
      3 C          63.0814   89.4411   12.2684 C.ar    1  UNL1        0.0849
      4 N          61.8949   89.9196   11.4852 N.ar    1  UNL1       -0.2440
      5 C          61.0153   88.9318   10.7778 C.ar    1  UNL1        0.0960
      6 C          61.3220   87.4655   10.8536 C.ar    1  UNL1        0.0135
      7 C          60.4423   86.4777   10.1461 C.3     1  UNL1        0.0342
      8 N          63.3949   83.2483   11.0870 N.ar    1  UNL1       -0.2782
      9 C          63.1696   84.6331   10.5563 C.ar    1  UNL1        0.3354
     10 O          63.2794   85.0560    9.1214 O.2     1  UNL1       -0.2459
     11 N          62.8152   85.5206   11.7125 N.ar    1  UNL1       -0.2590
     12 C          62.8214   84.6843   12.9577 C.ar    1  UNL1        0.0871
     13 C          62.5472   85.0202   14.3937 C.ar    1  UNL1        0.0398
     14 C          62.6312   83.9517   15.4430 C.ar    1  UNL1        0.1005
     15 N          62.9894   82.5474   15.0565 N.ar    1  UNL1       -0.2407
     16 C          63.2637   82.2115   13.6206 C.ar    1  UNL1        0.1176
     17 C          63.1797   83.2800   12.5712 C.ar    1  UNL1        0.0992
     18 C          63.0432   80.7469   10.4794 C.3     1  UNL1        0.0266
     19 C          63.7695   82.0434   10.2760 C.3     1  UNL1        0.1107
     20 C          63.9611   90.4288   12.9758 C.ar    1  UNL1        0.0460
     21 C          64.5794   91.5631   12.2135 C.ar    1  UNL1        0.0151
     22 C          65.4591   92.5508   12.9210 C.ar    1  UNL1        0.0579
     23 CL         66.0774   93.6851   12.1588 Cl      1  UNL1       -0.0822
     24 C          65.7205   92.4043   14.3908 C.ar    1  UNL1        0.0137
     25 C          65.1022   91.2700   15.1531 C.ar    1  UNL1        0.0306
     26 C          64.2224   90.2822   14.4455 C.ar    1  UNL1        0.1416
     27 F          63.6041   89.1479   15.2078 F       1  UNL1       -0.2041
@<TRIPOS>BOND
     1    18    19    1
     2    19     8    1
     3     8     9   ar
     4     9    10    2
     5     9    11   ar
     6    11     1    1
     7     1     2   ar
     8     2     3   ar
     9     3    20    1
    10    20    21   ar
    11    21    22   ar
    12    22    23    1
    13    22    24   ar
    14    24    25   ar
    15    25    26   ar
    16    26    27    1
    17     3     4   ar
    18     4     5   ar
    19     5     6   ar
    20     6     7    1
    21    11    12   ar
    22    12    13   ar
    23    13    14   ar
    24    14    15   ar
    25    15    16   ar
    26    16    17   ar
    27    17     8   ar
    28     6     1   ar
    29    17    12   ar
    30    26    20   ar
@<TRIPOS>MOLECULE
*****
 27 30 0 0 0
SMALL
GASTEIGER

@<TRIPOS>ATOM
      1 C          64.0833   90.3338   12.7608 C.ar    1  UNL1        0.0673
      2 C          64.7622   91.1921   11.7349 C.ar    1  UNL1        0.0365
      3 C          65.5157   92.4169   12.1616 C.ar    1  UNL1        0.0849
      4 N          65.5902   92.7835   13.6142 N.ar    1  UNL1       -0.2440
      5 C          64.9113   91.9252   14.6401 C.ar    1  UNL1        0.0960
      6 C          64.1578   90.7004   14.2134 C.ar    1  UNL1        0.0135
      7 C          63.4789   89.8421   15.2394 C.3     1  UNL1        0.0342
      8 N          62.5697   86.8107   12.1592 N.ar    1  UNL1       -0.2782
      9 C          63.5331   87.7200   12.8628 C.ar    1  UNL1        0.3354
     10 O          64.5255   87.3119   13.9110 O.2     1  UNL1       -0.2459
     11 N          63.3298   89.1089   12.3341 N.ar    1  UNL1       -0.2590
     12 C          62.2408   89.0580   11.3038 C.ar    1  UNL1        0.0871
     13 C          61.6163   90.1216   10.4502 C.ar    1  UNL1        0.0398
     14 C          60.5220   89.7647    9.4884 C.ar    1  UNL1        0.1005
     15 N          60.0522   88.3443    9.3803 N.ar    1  UNL1       -0.2407
     16 C          60.6767   87.2807   10.2339 C.ar    1  UNL1        0.1176
     17 C          61.7710   87.6376   11.1957 C.ar    1  UNL1        0.0992
     18 C          62.8249   84.3725   11.2987 C.3     1  UNL1        0.0266
     19 C          62.4296   85.3337   12.3803 C.3     1  UNL1        0.1107
     20 C          66.1945   93.2751   11.1357 C.ar    1  UNL1        0.0460
     21 C          65.6485   94.6350   10.8153 C.ar    1  UNL1        0.0151
     22 C          66.3275   95.4931    9.7893 C.ar    1  UNL1        0.0579
     23 CL         65.7815   96.8530    9.4689 Cl      1  UNL1       -0.0822
     24 C          67.5524   94.9914    9.0837 C.ar    1  UNL1        0.0137
     25 C          68.0984   93.6316    9.4041 C.ar    1  UNL1        0.0306
     26 C          67.4194   92.7734   10.4301 C.ar    1  UNL1        0.1416
     27 F          67.9654   91.4135   10.7505 F       1  UNL1       -0.2041
@<TRIPOS>BOND
     1    18    19    1
     2    19     8    1
     3     8     9   ar
     4     9    10    2
     5     9    11   ar
     6    11     1    1
     7     1     2   ar
     8     2     3   ar
     9     3    20    1
    10    20    21   ar
    11    21    22   ar
    12    22    23    1
    13    22    24   ar
    14    24    25   ar
    15    25    26   ar
    16    26    27    1
    17     3     4   ar
    18     4     5   ar
    19     5     6   ar
    20     6     7    1
    21    11    12   ar
    22    12    13   ar
    23    13    14   ar
    24    14    15   ar
    25    15    16   ar
    26    16    17   ar
    27    17     8   ar
    28     6     1   ar
    29    17    12   ar
    30    26    20   ar
@<TRIPOS>MOLECULE
*****
 27 30 0 0 0
SMALL
GASTEIGER

@<TRIPOS>ATOM
      1 C          62.6022   87.2622   11.7603 C.ar    1  UNL1        0.0673
      2 C          63.4848   88.2831   12.4154 C.ar    1  UNL1        0.0365
      3 C          63.1266   89.7382   12.3479 C.ar    1  UNL1        0.0849
      4 N          61.8859   90.1724   11.6253 N.ar    1  UNL1       -0.2440
      5 C          61.0034   89.1516   10.9702 C.ar    1  UNL1        0.0960
      6 C          61.3616   87.6965   11.0377 C.ar    1  UNL1        0.0135
      7 C          60.4791   86.6757   10.3826 C.3     1  UNL1        0.0342
      8 N          63.5086   83.5327   11.1826 N.ar    1  UNL1       -0.2782
      9 C          63.1661   84.8945   10.6553 C.ar    1  UNL1        0.3354
     10 O          63.0497   85.2766    9.2095 O.2     1  UNL1       -0.2459
     11 N          62.9605   85.8072   11.8278 N.ar    1  UNL1       -0.2590
     12 C          63.1759   85.0094   13.0797 C.ar    1  UNL1        0.0871
     13 C          63.1073   85.3815   14.5311 C.ar    1  UNL1        0.0398
     14 C          63.3775   84.3477   15.5839 C.ar    1  UNL1        0.1005
     15 N          63.7163   82.9419   15.1851 N.ar    1  UNL1       -0.2407
     16 C          63.7849   82.5699   13.7336 C.ar    1  UNL1        0.1176
     17 C          63.5147   83.6037   12.6809 C.ar    1  UNL1        0.0992
     18 C          63.0681   81.0315   10.6348 C.3     1  UNL1        0.0266
     19 C          63.7949   82.3137   10.3566 C.3     1  UNL1        0.1107
     20 C          64.0091   90.7589   13.0030 C.ar    1  UNL1        0.0460
     21 C          64.0666   90.8513   14.4990 C.ar    1  UNL1        0.0151
     22 C          64.9491   91.8721   15.1540 C.ar    1  UNL1        0.0579
     23 CL         65.0066   91.9644   16.6501 Cl      1  UNL1       -0.0822
     24 C          65.7743   92.8005   14.3131 C.ar    1  UNL1        0.0137
     25 C          65.7168   92.7081   12.8170 C.ar    1  UNL1        0.0306
     26 C          64.8342   91.6873   12.1620 C.ar    1  UNL1        0.1416
     27 F          64.7767   91.5949   10.6659 F       1  UNL1       -0.2041
@<TRIPOS>BOND
     1    18    19    1
     2    19     8    1
     3     8     9   ar
     4     9    10    2
     5     9    11   ar
     6    11     1    1
     7     1     2   ar
     8     2     3   ar
     9     3    20    1
    10    20    21   ar
    11    21    22   ar
    12    22    23    1
    13    22    24   ar
    14    24    25   ar
    15    25    26   ar
    16    26    27    1
    17     3     4   ar
    18     4     5   ar
    19     5     6   ar
    20     6     7    1
    21    11    12   ar
    22    12    13   ar
    23    13    14   ar
    24    14    15   ar
    25    15    16   ar
    26    16    17   ar
    27    17     8   ar
    28     6     1   ar
    29    17    12   ar
    30    26    20   ar
@<TRIPOS>MOLECULE
*****
 27 30 0 0 0
SMALL
GASTEIGER

@<TRIPOS>ATOM
      1 C          64.0642   90.4037   12.7134 C.ar    1  UNL1        0.0673
      2 C          64.7697   91.2517   11.6968 C.ar    1  UNL1        0.0365
      3 C          65.5703   92.4411   12.1378 C.ar    1  UNL1        0.0849
      4 N          65.6654   92.7825   13.5953 N.ar    1  UNL1       -0.2440
      5 C          64.9600   91.9346   14.6118 C.ar    1  UNL1        0.0960
      6 C          64.1594   90.7452   14.1708 C.ar    1  UNL1        0.0135
      7 C          63.4539   89.8973   15.1875 C.3     1  UNL1        0.0342
      8 N          61.6622   87.8147   11.1034 N.ar    1  UNL1       -0.2782
      9 C          62.1952   89.2120   11.2196 C.ar    1  UNL1        0.3354
     10 O          61.7396   90.3985   10.4230 O.2     1  UNL1       -0.2459
     11 N          63.2636   89.2143   12.2724 N.ar    1  UNL1       -0.2590
     12 C          63.3910   87.8186   12.8068 C.ar    1  UNL1        0.0871
     13 C          64.2803   87.2236   13.8579 C.ar    1  UNL1        0.0398
     14 C          64.1799   85.7635   14.1866 C.ar    1  UNL1        0.1005
     15 N          63.1902   84.8984   13.4641 N.ar    1  UNL1       -0.2407
     16 C          62.3008   85.4934   12.4129 C.ar    1  UNL1        0.1176
     17 C          62.4012   86.9535   12.0843 C.ar    1  UNL1        0.0992
     18 C          60.9121   86.4503    9.0235 C.3     1  UNL1        0.0266
     19 C          60.5801   87.3586   10.1700 C.3     1  UNL1        0.1107
     20 C          66.2757   93.2890   11.1212 C.ar    1  UNL1        0.0460
     21 C          65.7401   94.6467   10.7753 C.ar    1  UNL1        0.0151
     22 C          66.4456   95.4945    9.7587 C.ar    1  UNL1        0.0579
     23 CL         65.9100   96.8523    9.4128 Cl      1  UNL1       -0.0822
     24 C          67.6867   94.9846    9.0880 C.ar    1  UNL1        0.0137
     25 C          68.2222   93.6269    9.4339 C.ar    1  UNL1        0.0306
     26 C          67.5167   92.7790   10.4505 C.ar    1  UNL1        0.1416
     27 F          68.0523   91.4213   10.7965 F       1  UNL1       -0.2041
@<TRIPOS>BOND
     1    18    19    1
     2    19     8    1
     3     8     9   ar
     4     9    10    2
     5     9    11   ar
     6    11     1    1
     7     1     2   ar
     8     2     3   ar
     9     3    20    1
    10    20    21   ar
    11    21    22   ar
    12    22    23    1
    13    22    24   ar
    14    24    25   ar
    15    25    26   ar
    16    26    27    1
    17     3     4   ar
    18     4     5   ar
    19     5     6   ar
    20     6     7    1
    21    11    12   ar
    22    12    13   ar
    23    13    14   ar
    24    14    15   ar
    25    15    16   ar
    26    16    17   ar
    27    17     8   ar
    28     6     1   ar
    29    17    12   ar
    30    26    20   ar
@<TRIPOS>MOLECULE
*****
 27 30 0 0 0
SMALL
GASTEIGER

@<TRIPOS>ATOM
      1 C          63.7870   88.1103   14.8448 C.ar    1  UNL1        0.0673
      2 C          64.4475   89.2563   14.1371 C.ar    1  UNL1        0.0365
      3 C          64.5171   90.6032   14.7934 C.ar    1  UNL1        0.0849
      4 N          63.9264   90.8043   16.1575 N.ar    1  UNL1       -0.2440
      5 C          63.2660   89.6584   16.8651 C.ar    1  UNL1        0.0960
      6 C          63.1963   88.3114   16.2087 C.ar    1  UNL1        0.0135
      7 C          62.5359   87.1655   16.9165 C.3     1  UNL1        0.0342
      8 N          63.9245   84.3793   13.7839 N.ar    1  UNL1       -0.2782
      9 C          64.1850   85.4678   14.7824 C.ar    1  UNL1        0.3354
     10 O          64.8044   85.2918   16.1372 O.2     1  UNL1       -0.2459
     11 N          63.7174   86.7633   14.1884 N.ar    1  UNL1       -0.2590
     12 C          63.1679   86.4755   12.8226 C.ar    1  UNL1        0.0871
     13 C          62.5675   87.3647   11.7744 C.ar    1  UNL1        0.0398
     14 C          62.0951   86.7804   10.4762 C.ar    1  UNL1        0.1005
     15 N          62.2231   85.3069   10.2262 N.ar    1  UNL1       -0.2407
     16 C          62.8235   84.4177   11.2744 C.ar    1  UNL1        0.1176
     17 C          63.2959   85.0020   12.5726 C.ar    1  UNL1        0.0992
     18 C          63.1315   81.9107   13.9481 C.3     1  UNL1        0.0266
     19 C          64.2376   82.9235   13.9647 C.3     1  UNL1        0.1107
     20 C          65.1775   91.7491   14.0857 C.ar    1  UNL1        0.0460
     21 C          64.9645   91.9446   12.6139 C.ar    1  UNL1        0.0151
     22 C          65.6250   93.0905   11.9063 C.ar    1  UNL1        0.0579
     23 CL         65.4120   93.2861   10.4344 Cl      1  UNL1       -0.0822
     24 C          66.4984   94.0409   12.6704 C.ar    1  UNL1        0.0137
     25 C          66.7114   93.8453   14.1423 C.ar    1  UNL1        0.0306
     26 C          66.0509   92.6994   14.8500 C.ar    1  UNL1        0.1416
     27 F          66.2639   92.5038   16.3218 F       1  UNL1       -0.2041
@<TRIPOS>BOND
     1    18    19    1
     2    19     8    1
     3     8     9   ar
     4     9    10    2
     5     9    11   ar
     6    11     1    1
     7     1     2   ar
     8     2     3   ar
     9     3    20    1
    10    20    21   ar
    11    21    22   ar
    12    22    23    1
    13    22    24   ar
    14    24    25   ar
    15    25    26   ar
    16    26    27    1
    17     3     4   ar
    18     4     5   ar
    19     5     6   ar
    20     6     7    1
    21    11    12   ar
    22    12    13   ar
    23    13    14   ar
    24    14    15   ar
    25    15    16   ar
    26    16    17   ar
    27    17     8   ar
    28     6     1   ar
    29    17    12   ar
    30    26    20   ar
@<TRIPOS>MOLECULE
*****
 27 30 0 0 0
SMALL
GASTEIGER

@<TRIPOS>ATOM
      1 C          62.6527   87.0283   11.9936 C.ar    1  UNL1        0.0673
      2 C          63.0932   88.3456   12.5601 C.ar    1  UNL1        0.0365
      3 C          63.9024   88.3861   13.8224 C.ar    1  UNL1        0.0849
      4 N          64.2711   87.1095   14.5184 N.ar    1  UNL1       -0.2440
      5 C          63.8306   85.7923   13.9519 C.ar    1  UNL1        0.0960
      6 C          63.0214   85.7517   12.6895 C.ar    1  UNL1        0.0135
      7 C          62.5809   84.4344   12.1231 C.3     1  UNL1        0.0342
      8 N          60.1262   87.4326    9.0749 N.ar    1  UNL1       -0.2782
      9 C          60.6038   87.7848   10.4525 C.ar    1  UNL1        0.3354
     10 O          59.9556   88.7626   11.3873 O.2     1  UNL1       -0.2459
     11 N          61.8435   86.9877   10.7312 N.ar    1  UNL1       -0.2590
     12 C          62.1321   86.1428    9.5258 C.ar    1  UNL1        0.0871
     13 C          63.2241   85.1585    9.2281 C.ar    1  UNL1        0.0398
     14 C          63.2548   84.4493    7.9067 C.ar    1  UNL1        0.1005
     15 N          62.1934   84.7243    6.8831 N.ar    1  UNL1       -0.2407
     16 C          61.1013   85.7085    7.1808 C.ar    1  UNL1        0.1176
     17 C          61.0707   86.4177    8.5022 C.ar    1  UNL1        0.0992
     18 C          59.0751   88.8329    7.1555 C.3     1  UNL1        0.0266
     19 C          58.9164   87.9963    8.3903 C.3     1  UNL1        0.1107
     20 C          64.3428   89.7034   14.3888 C.ar    1  UNL1        0.0460
     21 C          65.3005   90.5668   13.6225 C.ar    1  UNL1        0.0151
     22 C          65.7409   91.8840   14.1890 C.ar    1  UNL1        0.0579
     23 CL         66.6986   92.7474   13.4226 Cl      1  UNL1       -0.0822
     24 C          65.2237   92.3379   15.5218 C.ar    1  UNL1        0.0137
     25 C          64.2660   91.4745   16.2882 C.ar    1  UNL1        0.0306
     26 C          63.8255   90.1572   15.7217 C.ar    1  UNL1        0.1416
     27 F          62.8678   89.2938   16.4880 F       1  UNL1       -0.2041
@<TRIPOS>BOND
     1    18    19    1
     2    19     8    1
     3     8     9   ar
     4     9    10    2
     5     9    11   ar
     6    11     1    1
     7     1     2   ar
     8     2     3   ar
     9     3    20    1
    10    20    21   ar
    11    21    22   ar
    12    22    23    1
    13    22    24   ar
    14    24    25   ar
    15    25    26   ar
    16    26    27    1
    17     3     4   ar
    18     4     5   ar
    19     5     6   ar
    20     6     7    1
    21    11    12   ar
    22    12    13   ar
    23    13    14   ar
    24    14    15   ar
    25    15    16   ar
    26    16    17   ar
    27    17     8   ar
    28     6     1   ar
    29    17    12   ar
    30    26    20   ar
@<TRIPOS>MOLECULE
*****
 27 30 0 0 0
SMALL
GASTEIGER

@<TRIPOS>ATOM
      1 C          62.6879   86.8010   12.2276 C.ar    1  UNL1        0.0673
      2 C          63.4437   87.7624   13.0964 C.ar    1  UNL1        0.0365
      3 C          63.3719   89.2356   12.8235 C.ar    1  UNL1        0.0849
      4 N          62.5444   89.7475   11.6820 N.ar    1  UNL1       -0.2440
      5 C          61.7886   88.7862   10.8133 C.ar    1  UNL1        0.0960
      6 C          61.8604   87.3129   11.0862 C.ar    1  UNL1        0.0135
      7 C          61.1045   86.3516   10.2174 C.3     1  UNL1        0.0342
      8 N          62.5801   83.1730   13.6028 N.ar    1  UNL1       -0.2782
      9 C          62.3326   84.6435   13.7652 C.ar    1  UNL1        0.3354
     10 O          61.7588   85.3123   14.9791 O.2     1  UNL1       -0.2459
     11 N          62.7596   85.3278   12.5005 N.ar    1  UNL1       -0.2590
     12 C          63.2711   84.2802   11.5566 C.ar    1  UNL1        0.0871
     13 C          63.8234   84.3669   10.1647 C.ar    1  UNL1        0.0398
     14 C          64.2649   83.1218    9.4541 C.ar    1  UNL1        0.1005
     15 N          64.1539   81.7901   10.1354 N.ar    1  UNL1       -0.2407
     16 C          63.6015   81.7034   11.5273 C.ar    1  UNL1        0.1176
     17 C          63.1601   82.9485   12.2379 C.ar    1  UNL1        0.0992
     18 C          61.3828   80.9724   14.2910 C.3     1  UNL1        0.0266
     19 C          62.2973   82.1131   14.6259 C.3     1  UNL1        0.1107
     20 C          64.1277   90.1969   13.6922 C.ar    1  UNL1        0.0460
     21 C          65.2377   91.0208   13.1099 C.ar    1  UNL1        0.0151
     22 C          65.9934   91.9821   13.9787 C.ar    1  UNL1        0.0579
     23 CL         67.1034   92.8060   13.3964 Cl      1  UNL1       -0.0822
     24 C          65.6392   92.1195   15.4298 C.ar    1  UNL1        0.0137
     25 C          64.5293   91.2955   16.0121 C.ar    1  UNL1        0.0306
     26 C          63.7735   90.3342   15.1433 C.ar    1  UNL1        0.1416
     27 F          62.6635   89.5103   15.7256 F       1  UNL1       -0.2041
@<TRIPOS>BOND
     1    18    19    1
     2    19     8    1
     3     8     9   ar
     4     9    10    2
     5     9    11   ar
     6    11     1    1
     7     1     2   ar
     8     2     3   ar
     9     3    20    1
    10    20    21   ar
    11    21    22   ar
    12    22    23    1
    13    22    24   ar
    14    24    25   ar
    15    25    26   ar
    16    26    27    1
    17     3     4   ar
    18     4     5   ar
    19     5     6   ar
    20     6     7    1
    21    11    12   ar
    22    12    13   ar
    23    13    14   ar
    24    14    15   ar
    25    15    16   ar
    26    16    17   ar
    27    17     8   ar
    28     6     1   ar
    29    17    12   ar
    30    26    20   ar
