@<TRIPOS>MOLECULE
*****
 38 42 0 0 0
SMALL
GASTEIGER

@<TRIPOS>ATOM
      1 C          62.9663   90.6718   11.5842 C.3     1  UNL1        0.1455
      2 C          63.1832   91.5358   10.3774 C.3     1  UNL1        0.1634
      3 O          64.4316   92.3589   10.2589 O.3     1  UNL1       -0.3507
      4 C          65.4631   92.3179   11.3471 C.3     1  UNL1        0.1598
      5 C          65.2462   91.4538   12.5539 C.3     1  UNL1        0.1093
      6 N          63.9979   90.6308   12.6725 N.3     1  UNL1       -0.1499
      7 C          61.7179   89.8487   11.7029 C.3     1  UNL1        0.1550
      8 C          60.6823   90.9262   11.5748 C.3     1  UNL1        0.0453
      9 C          60.2605   89.4989   11.7628 C.3     1  UNL1        0.0453
     10 O          62.3201   88.4853   11.8722 O.3     1  UNL1       -0.4403
     11 C          62.6528   85.1330    9.7742 C.3     1  UNL1        0.0984
     12 C          62.8624   83.6660   10.0067 C.3     1  UNL1        0.1132
     13 N          63.0103   83.1416   11.4042 N.am    1  UNL1       -0.2778
     14 C          63.2199   81.6747   11.6365 C.2     1  UNL1        0.2262
     15 C          63.2815   80.7320   10.4714 C.3     1  UNL1        0.0948
     16 O          63.3678   81.1503   13.0341 O.2     1  UNL1       -0.2749
     17 C          62.9487   84.0843   12.5694 C.3     1  UNL1        0.0953
     18 C          63.0966   83.5599   13.9669 C.3     1  UNL1        0.0233
     19 C          62.7392   85.5513   12.3370 C.3     1  UNL1        0.1164
     20 N          62.5912   86.0757   10.9394 N.am    1  UNL1       -0.2443
     21 C          62.3817   87.5426   10.7071 C.2     1  UNL1        0.4047
     22 O          62.2338   88.0670    9.3095 O.2     1  UNL1       -0.2262
     23 C          62.7267   84.7459    7.2063 C.3     1  UNL1        0.0018
     24 C          62.5049   85.6574    8.3767 C.3     1  UNL1        0.0217
     25 S          63.7810   89.7668   13.8793 S.O2    1  UNL1        0.0635
     26 O          64.2757   88.5650   13.5139 O.2     1  UNL1       -0.1528
     27 O          63.1604   90.9275   14.5988 O.2     1  UNL1       -0.1528
     28 C          63.5641   88.9029   15.0862 C.ar    1  UNL1        0.1223
     29 C          63.0557   89.5086   16.3607 C.ar    1  UNL1        0.0208
     30 C          62.8388   88.6447   17.5676 C.ar    1  UNL1        0.0128
     31 C          63.1303   87.1748   17.4999 C.ar    1  UNL1        0.0578
     32 CL         62.9134   86.3107   18.7067 Cl      1  UNL1       -0.0822
     33 C          63.6386   86.5689   16.2253 C.ar    1  UNL1        0.0128
     34 C          63.8555   87.4329   15.0185 C.ar    1  UNL1        0.0208
     35 C          66.2778   91.4129   13.6422 C.3     1  UNL1        0.0203
     36 C          66.7804   92.6900   14.2476 C.3     1  UNL1        0.0015
     37 C          67.5953   93.4030   15.2857 C.3     1  UNL1        0.0000
     38 C          66.8360   94.1889   14.2581 C.3     1  UNL1        0.0000
@<TRIPOS>BOND
     1    23    24    1
     2    11    24    1
     3    11    12    1
     4    12    13    1
     5    13    14   am
     6    14    15    1
     7    14    16    2
     8    13    17    1
     9    17    18    1
    10    17    19    1
    11    19    20    1
    12    20    21   am
    13    21    22    2
    14    21    10    1
    15    10     7    1
    16     1     7    1
    17     1     2    1
    18     2     3    1
    19     3     4    1
    20     4     5    1
    21     5    35    1
    22    35    36    1
    23    36    37    1
    24    37    38    1
    25     5     6    1
    26     6    25    1
    27    25    26    2
    28    25    27    2
    29    25    28    1
    30    28    29   ar
    31    29    30   ar
    32    30    31   ar
    33    31    32    1
    34    31    33   ar
    35    33    34   ar
    36     7     8    1
    37     8     9    1
    38    20    11    1
    39     9     7    1
    40     6     1    1
    41    34    28   ar
    42    38    36    1
@<TRIPOS>MOLECULE
*****
 38 42 0 0 0
SMALL
GASTEIGER

@<TRIPOS>ATOM
      1 C          60.5078   88.9493    9.6015 C.3     1  UNL1        0.1455
      2 C          59.7411   89.6796    8.5391 C.3     1  UNL1        0.1634
      3 O          59.3005   88.9563    7.3010 O.3     1  UNL1       -0.3507
      4 C          59.6266   87.5028    7.1254 C.3     1  UNL1        0.1598
      5 C          60.3933   86.7725    8.1879 C.3     1  UNL1        0.1093
      6 N          60.8339   87.4957    9.4259 N.3     1  UNL1       -0.1499
      7 C          60.9484   89.6724   10.8396 C.3     1  UNL1        0.1550
      8 C          59.6145   90.0776   11.3933 C.3     1  UNL1        0.0453
      9 C          60.8728   90.4490   12.1207 C.3     1  UNL1        0.0453
     10 O          62.4354   89.5184   10.7158 O.3     1  UNL1       -0.4403
     11 C          64.9904   92.4357   11.5590 C.3     1  UNL1        0.0984
     12 C          65.8074   92.9281   12.7167 C.3     1  UNL1        0.1132
     13 N          65.7552   92.2081   14.0316 N.am    1  UNL1       -0.2778
     14 C          66.5722   92.7005   15.1892 C.2     1  UNL1        0.2262
     15 C          67.4412   93.9129   15.0320 C.3     1  UNL1        0.0948
     16 O          66.5200   91.9805   16.5041 O.2     1  UNL1       -0.2749
     17 C          64.8862   90.9956   14.1888 C.3     1  UNL1        0.0953
     18 C          64.8340   90.2756   15.5036 C.3     1  UNL1        0.0233
     19 C          64.0693   90.5032   13.0312 C.3     1  UNL1        0.1164
     20 N          64.1214   91.2232   11.7162 N.am    1  UNL1       -0.2443
     21 C          63.3045   90.7308   10.5586 C.2     1  UNL1        0.4047
     22 O          63.3566   91.4508    9.2437 O.2     1  UNL1       -0.2262
     23 C          66.2706   93.9264    9.8593 C.3     1  UNL1        0.0018
     24 C          65.0426   93.1557   10.2442 C.3     1  UNL1        0.0217
     25 S          61.6005   86.7654   10.4884 S.O2    1  UNL1        0.0635
     26 O          60.7374   86.6949   11.5240 O.2     1  UNL1       -0.1528
     27 O          62.7802   86.6639    9.5675 O.2     1  UNL1       -0.1528
     28 C          62.3673   86.0351   11.5508 C.ar    1  UNL1        0.1223
     29 C          62.4353   84.5368   11.5308 C.ar    1  UNL1        0.0208
     30 C          63.2021   83.8065   12.5932 C.ar    1  UNL1        0.0128
     31 C          63.9009   84.5745   13.6758 C.ar    1  UNL1        0.0578
     32 CL         64.6677   83.8443   14.7382 Cl      1  UNL1       -0.0822
     33 C          63.8329   86.0729   13.6958 C.ar    1  UNL1        0.0128
     34 C          63.0661   86.8031   12.6334 C.ar    1  UNL1        0.0208
     35 C          60.7194   85.3189    8.0123 C.3     1  UNL1        0.0203
     36 C          61.5076   84.8659    6.8191 C.3     1  UNL1        0.0015
     37 C          62.7998   84.8148    6.0590 C.3     1  UNL1        0.0000
     38 C          61.5808   84.1325    5.5128 C.3     1  UNL1        0.0000
@<TRIPOS>BOND
     1    23    24    1
     2    11    24    1
     3    11    12    1
     4    12    13    1
     5    13    14   am
     6    14    15    1
     7    14    16    2
     8    13    17    1
     9    17    18    1
    10    17    19    1
    11    19    20    1
    12    20    21   am
    13    21    22    2
    14    21    10    1
    15    10     7    1
    16     1     7    1
    17     1     2    1
    18     2     3    1
    19     3     4    1
    20     4     5    1
    21     5    35    1
    22    35    36    1
    23    36    37    1
    24    37    38    1
    25     5     6    1
    26     6    25    1
    27    25    26    2
    28    25    27    2
    29    25    28    1
    30    28    29   ar
    31    29    30   ar
    32    30    31   ar
    33    31    32    1
    34    31    33   ar
    35    33    34   ar
    36     7     8    1
    37     8     9    1
    38    20    11    1
    39     9     7    1
    40     6     1    1
    41    34    28   ar
    42    38    36    1
@<TRIPOS>MOLECULE
*****
 38 42 0 0 0
SMALL
GASTEIGER

@<TRIPOS>ATOM
      1 C          63.7105   90.6266   14.0734 C.3     1  UNL1        0.1455
      2 C          62.9908   90.1346   15.2940 C.3     1  UNL1        0.1634
      3 O          63.3674   90.6577   16.6485 O.3     1  UNL1       -0.3507
      4 C          64.4635   91.6728   16.7823 C.3     1  UNL1        0.1598
      5 C          65.1832   92.1648   15.5617 C.3     1  UNL1        0.1093
      6 N          64.8067   91.6417   14.2073 N.3     1  UNL1       -0.1499
      7 C          63.3340   90.1036   12.7189 C.3     1  UNL1        0.1550
      8 C          62.9584   91.3869   12.0392 C.3     1  UNL1        0.0453
      9 C          62.8725   90.0892   11.2917 C.3     1  UNL1        0.0453
     10 O          63.5790   88.6385   12.9281 O.3     1  UNL1       -0.4403
     11 C          62.5772   85.1791   11.2611 C.3     1  UNL1        0.0984
     12 C          62.6203   83.7135   11.5774 C.3     1  UNL1        0.1132
     13 N          63.1857   83.2447   12.8853 N.am    1  UNL1       -0.2778
     14 C          63.2287   81.7791   13.2015 C.2     1  UNL1        0.2262
     15 C          62.7063   80.7822   12.2099 C.3     1  UNL1        0.0948
     16 O          63.7942   81.3103   14.5094 O.2     1  UNL1       -0.2749
     17 C          63.7081   84.2416   13.8769 C.3     1  UNL1        0.0953
     18 C          64.2735   83.7729   15.1847 C.3     1  UNL1        0.0233
     19 C          63.6650   85.7072   13.5607 C.3     1  UNL1        0.1164
     20 N          63.0996   86.1760   12.2527 N.am    1  UNL1       -0.2443
     21 C          63.0566   87.6417   11.9365 C.2     1  UNL1        0.4047
     22 O          62.4911   88.1105   10.6286 O.2     1  UNL1       -0.2262
     23 C          62.7828   85.4366    8.6840 C.3     1  UNL1        0.0018
     24 C          62.0118   85.6479    9.9533 C.3     1  UNL1        0.0217
     25 S          65.5264   92.1338   12.9866 S.O2    1  UNL1        0.0635
     26 O          64.8625   93.2593   12.6474 O.2     1  UNL1       -0.1528
     27 O          66.4661   90.9676   13.0706 O.2     1  UNL1       -0.1528
     28 C          66.2461   92.6257   11.7660 C.ar    1  UNL1        0.1223
     29 C          67.4971   91.9386   11.3050 C.ar    1  UNL1        0.0208
     30 C          68.2169   92.4305   10.0843 C.ar    1  UNL1        0.0128
     31 C          67.6854   93.6098    9.3246 C.ar    1  UNL1        0.0578
     32 CL         68.4051   94.1018    8.1039 Cl      1  UNL1       -0.0822
     33 C          66.4343   94.2970    9.7856 C.ar    1  UNL1        0.0128
     34 C          65.7146   93.8050   11.0062 C.ar    1  UNL1        0.0208
     35 C          66.2794   93.1799   15.6956 C.3     1  UNL1        0.0203
     36 C          67.7134   92.7396   15.6957 C.3     1  UNL1        0.0015
     37 C          68.8970   92.1689   16.4192 C.3     1  UNL1        0.0000
     38 C          69.0134   92.5478   14.9725 C.3     1  UNL1        0.0000
@<TRIPOS>BOND
     1    23    24    1
     2    11    24    1
     3    11    12    1
     4    12    13    1
     5    13    14   am
     6    14    15    1
     7    14    16    2
     8    13    17    1
     9    17    18    1
    10    17    19    1
    11    19    20    1
    12    20    21   am
    13    21    22    2
    14    21    10    1
    15    10     7    1
    16     1     7    1
    17     1     2    1
    18     2     3    1
    19     3     4    1
    20     4     5    1
    21     5    35    1
    22    35    36    1
    23    36    37    1
    24    37    38    1
    25     5     6    1
    26     6    25    1
    27    25    26    2
    28    25    27    2
    29    25    28    1
    30    28    29   ar
    31    29    30   ar
    32    30    31   ar
    33    31    32    1
    34    31    33   ar
    35    33    34   ar
    36     7     8    1
    37     8     9    1
    38    20    11    1
    39     9     7    1
    40     6     1    1
    41    34    28   ar
    42    38    36    1
@<TRIPOS>MOLECULE
*****
 38 42 0 0 0
SMALL
GASTEIGER

@<TRIPOS>ATOM
      1 C          63.8719   90.5704   14.4994 C.3     1  UNL1        0.1455
      2 C          63.1321   90.2609   15.7671 C.3     1  UNL1        0.1634
      3 O          63.4338   91.0309   17.0186 O.3     1  UNL1       -0.3507
      4 C          64.4752   92.1103   17.0024 C.3     1  UNL1        0.1598
      5 C          65.2150   92.4198   15.7348 C.3     1  UNL1        0.1093
      6 N          64.9134   91.6499   14.4833 N.3     1  UNL1       -0.1499
      7 C          63.5704   89.8006   13.2479 C.3     1  UNL1        0.1550
      8 C          62.5711   90.7201   12.6108 C.3     1  UNL1        0.0453
      9 C          62.9582   89.4428   11.9261 C.3     1  UNL1        0.0453
     10 O          64.4649   88.6136   13.4505 O.3     1  UNL1       -0.4403
     11 C          63.4172   85.2150   15.2117 C.3     1  UNL1        0.0984
     12 C          63.0018   83.8238   14.8350 C.3     1  UNL1        0.1132
     13 N          62.9025   83.4362   13.3894 N.am    1  UNL1       -0.2778
     14 C          62.4872   82.0450   13.0127 C.2     1  UNL1        0.2262
     15 C          62.1710   81.0413   14.0817 C.3     1  UNL1        0.0948
     16 O          62.3879   81.6574   11.5670 O.2     1  UNL1       -0.2749
     17 C          63.2187   84.4399   12.3204 C.3     1  UNL1        0.0953
     18 C          63.1195   84.0523   10.8748 C.3     1  UNL1        0.0233
     19 C          63.6341   85.8311   12.6971 C.3     1  UNL1        0.1164
     20 N          63.7333   86.2187   14.1428 N.am    1  UNL1       -0.2443
     21 C          64.1487   87.6099   14.5194 C.2     1  UNL1        0.4047
     22 O          64.2480   87.9975   15.9651 O.2     1  UNL1       -0.2262
     23 C          62.2887   86.0316   17.4048 C.3     1  UNL1        0.0018
     24 C          63.5164   85.6026   16.6574 C.3     1  UNL1        0.0217
     25 S          65.6532   91.9594   13.2157 S.O2    1  UNL1        0.0635
     26 O          64.8385   92.8151   12.5626 O.2     1  UNL1       -0.1528
     27 O          66.7706   91.0566   13.6474 O.2     1  UNL1       -0.1528
     28 C          66.3930   92.2688   11.9481 C.ar    1  UNL1        0.1223
     29 C          65.7698   93.1588   10.9140 C.ar    1  UNL1        0.0208
     30 C          66.5096   93.4682    9.6464 C.ar    1  UNL1        0.0128
     31 C          67.8729   92.8876    9.4129 C.ar    1  UNL1        0.0578
     32 CL         68.6129   93.1970    8.1453 Cl      1  UNL1       -0.0822
     33 C          68.4963   91.9976   10.4470 C.ar    1  UNL1        0.0128
     34 C          67.7563   91.6882   11.7146 C.ar    1  UNL1        0.0208
     35 C          66.2564   93.4992   15.7187 C.3     1  UNL1        0.0203
     36 C          67.6988   93.1532   15.9426 C.3     1  UNL1        0.0015
     37 C          69.1434   93.5566   15.9629 C.3     1  UNL1        0.0000
     38 C          68.7522   92.1508   16.3101 C.3     1  UNL1        0.0000
@<TRIPOS>BOND
     1    23    24    1
     2    11    24    1
     3    11    12    1
     4    12    13    1
     5    13    14   am
     6    14    15    1
     7    14    16    2
     8    13    17    1
     9    17    18    1
    10    17    19    1
    11    19    20    1
    12    20    21   am
    13    21    22    2
    14    21    10    1
    15    10     7    1
    16     1     7    1
    17     1     2    1
    18     2     3    1
    19     3     4    1
    20     4     5    1
    21     5    35    1
    22    35    36    1
    23    36    37    1
    24    37    38    1
    25     5     6    1
    26     6    25    1
    27    25    26    2
    28    25    27    2
    29    25    28    1
    30    28    29   ar
    31    29    30   ar
    32    30    31   ar
    33    31    32    1
    34    31    33   ar
    35    33    34   ar
    36     7     8    1
    37     8     9    1
    38    20    11    1
    39     9     7    1
    40     6     1    1
    41    34    28   ar
    42    38    36    1
@<TRIPOS>MOLECULE
*****
 38 42 0 0 0
SMALL
GASTEIGER

@<TRIPOS>ATOM
      1 C          60.5850   88.4220    9.6260 C.3     1  UNL1        0.1455
      2 C          59.9097   89.2785    8.5963 C.3     1  UNL1        0.1634
      3 O          59.5884   88.7134    7.2444 O.3     1  UNL1       -0.3507
      4 C          59.9424   87.2918    6.9224 C.3     1  UNL1        0.1598
      5 C          60.6177   86.4353    7.9521 C.3     1  UNL1        0.1093
      6 N          60.9390   87.0004    9.3039 N.3     1  UNL1       -0.1499
      7 C          60.9063   88.9869   10.9779 C.3     1  UNL1        0.1550
      8 C          59.5237   89.3142   11.4588 C.3     1  UNL1        0.0453
      9 C          60.7088   89.5974   12.3337 C.3     1  UNL1        0.0453
     10 O          62.4005   88.8558   10.9664 O.3     1  UNL1       -0.4403
     11 C          64.7950   90.2535   13.8060 C.3     1  UNL1        0.0984
     12 C          65.6471   91.4573   14.0797 C.3     1  UNL1        0.1132
     13 N          65.7279   92.5641   13.0705 N.am    1  UNL1       -0.2778
     14 C          66.5800   93.7678   13.3443 C.2     1  UNL1        0.2262
     15 C          67.3512   93.8648   14.6272 C.3     1  UNL1        0.0948
     16 O          66.6608   94.8747   12.3351 O.2     1  UNL1       -0.2749
     17 C          64.9567   92.4671   11.7876 C.3     1  UNL1        0.0953
     18 C          65.0375   93.5739   10.7785 C.3     1  UNL1        0.0233
     19 C          64.1047   91.2634   11.5139 C.3     1  UNL1        0.1164
     20 N          64.0238   90.1565   12.5231 N.am    1  UNL1       -0.2443
     21 C          63.1718   88.9528   12.2493 C.2     1  UNL1        0.4047
     22 O          63.0909   87.8459   13.2585 O.2     1  UNL1       -0.2262
     23 C          63.7163   89.2218   15.9324 C.3     1  UNL1        0.0018
     24 C          64.7142   89.1467   14.8151 C.3     1  UNL1        0.0217
     25 S          61.6143   86.1438   10.3336 S.O2    1  UNL1        0.0635
     26 O          60.7571   86.1496   11.3765 O.2     1  UNL1       -0.1528
     27 O          62.7644   85.9236    9.3962 O.2     1  UNL1       -0.1528
     28 C          62.2896   85.2873   11.3633 C.ar    1  UNL1        0.1223
     29 C          63.3449   84.3059   10.9474 C.ar    1  UNL1        0.0208
     30 C          64.0203   83.4494   11.9770 C.ar    1  UNL1        0.0128
     31 C          63.6403   83.5743   13.4228 C.ar    1  UNL1        0.0578
     32 CL         64.3156   82.7178   14.4525 Cl      1  UNL1       -0.0822
     33 C          62.5850   84.5558   13.8388 C.ar    1  UNL1        0.0128
     34 C          61.9096   85.4122   12.8090 C.ar    1  UNL1        0.0208
     35 C          60.9717   85.0137    7.6299 C.3     1  UNL1        0.0203
     36 C          61.6943   84.6910    6.3556 C.3     1  UNL1        0.0015
     37 C          61.6703   84.2138    4.9337 C.3     1  UNL1        0.0000
     38 C          62.9696   84.6095    5.5703 C.3     1  UNL1        0.0000
@<TRIPOS>BOND
     1    23    24    1
     2    11    24    1
     3    11    12    1
     4    12    13    1
     5    13    14   am
     6    14    15    1
     7    14    16    2
     8    13    17    1
     9    17    18    1
    10    17    19    1
    11    19    20    1
    12    20    21   am
    13    21    22    2
    14    21    10    1
    15    10     7    1
    16     1     7    1
    17     1     2    1
    18     2     3    1
    19     3     4    1
    20     4     5    1
    21     5    35    1
    22    35    36    1
    23    36    37    1
    24    37    38    1
    25     5     6    1
    26     6    25    1
    27    25    26    2
    28    25    27    2
    29    25    28    1
    30    28    29   ar
    31    29    30   ar
    32    30    31   ar
    33    31    32    1
    34    31    33   ar
    35    33    34   ar
    36     7     8    1
    37     8     9    1
    38    20    11    1
    39     9     7    1
    40     6     1    1
    41    34    28   ar
    42    38    36    1
@<TRIPOS>MOLECULE
*****
 38 42 0 0 0
SMALL
GASTEIGER

@<TRIPOS>ATOM
      1 C          63.6467   90.4056   12.5913 C.3     1  UNL1        0.1455
      2 C          62.5335   89.9744   11.6831 C.3     1  UNL1        0.1634
      3 O          62.3912   90.5942   10.3245 O.3     1  UNL1       -0.3507
      4 C          63.3622   91.6451    9.8742 C.3     1  UNL1        0.1598
      5 C          64.4754   92.0763   10.7824 C.3     1  UNL1        0.1093
      6 N          64.6177   91.4565   12.1409 N.3     1  UNL1       -0.1499
      7 C          63.7891   89.7859   13.9499 C.3     1  UNL1        0.1550
      8 C          63.5650   90.9931   14.8116 C.3     1  UNL1        0.0453
      9 C          63.8365   89.6601   15.4438 C.3     1  UNL1        0.0453
     10 O          64.0626   88.3635   13.5599 O.3     1  UNL1       -0.4403
     11 C          63.4053   84.7519   15.0680 C.3     1  UNL1        0.0984
     12 C          63.1752   83.3485   14.5908 C.3     1  UNL1        0.1132
     13 N          63.1587   83.0494   13.1210 N.am    1  UNL1       -0.2778
     14 C          62.9286   81.6460   12.6439 C.2     1  UNL1        0.2262
     15 C          62.7150   80.5419   13.6365 C.3     1  UNL1        0.0948
     16 O          62.9120   81.3468   11.1741 O.2     1  UNL1       -0.2749
     17 C          63.3723   84.1535   12.1284 C.3     1  UNL1        0.0953
     18 C          63.3558   83.8543   10.6587 C.3     1  UNL1        0.0233
     19 C          63.6024   85.5568   12.6056 C.3     1  UNL1        0.1164
     20 N          63.6189   85.8561   14.0754 N.am    1  UNL1       -0.2443
     21 C          63.8490   87.2594   14.5525 C.2     1  UNL1        0.4047
     22 O          63.8656   87.5586   16.0223 O.2     1  UNL1       -0.2262
     23 C          62.1934   85.5928   17.2067 C.3     1  UNL1        0.0018
     24 C          63.4219   85.0511   16.5377 C.3     1  UNL1        0.0217
     25 S          65.7309   91.8877   13.0491 S.O2    1  UNL1        0.0635
     26 O          66.5212   90.7969   13.1379 O.2     1  UNL1       -0.1528
     27 O          65.1035   93.2445   13.1739 O.2     1  UNL1       -0.1528
     28 C          66.8441   92.3190   13.9573 C.ar    1  UNL1        0.1223
     29 C          66.5504   93.1907   15.1421 C.ar    1  UNL1        0.0208
     30 C          67.6636   93.6219   16.0503 C.ar    1  UNL1        0.0128
     31 C          69.0706   93.1815   15.7736 C.ar    1  UNL1        0.0578
     32 CL         70.1838   93.6127   16.6818 Cl      1  UNL1       -0.0822
     33 C          69.3643   92.3098   14.5887 C.ar    1  UNL1        0.0128
     34 C          68.2511   91.8785   13.6806 C.ar    1  UNL1        0.0208
     35 C          65.4463   93.1272   10.3320 C.3     1  UNL1        0.0203
     36 C          66.8487   92.7437    9.9625 C.3     1  UNL1        0.0015
     37 C          68.1315   93.0443    9.2454 C.3     1  UNL1        0.0000
     38 C          67.9947   91.7792   10.0396 C.3     1  UNL1        0.0000
@<TRIPOS>BOND
     1    23    24    1
     2    11    24    1
     3    11    12    1
     4    12    13    1
     5    13    14   am
     6    14    15    1
     7    14    16    2
     8    13    17    1
     9    17    18    1
    10    17    19    1
    11    19    20    1
    12    20    21   am
    13    21    22    2
    14    21    10    1
    15    10     7    1
    16     1     7    1
    17     1     2    1
    18     2     3    1
    19     3     4    1
    20     4     5    1
    21     5    35    1
    22    35    36    1
    23    36    37    1
    24    37    38    1
    25     5     6    1
    26     6    25    1
    27    25    26    2
    28    25    27    2
    29    25    28    1
    30    28    29   ar
    31    29    30   ar
    32    30    31   ar
    33    31    32    1
    34    31    33   ar
    35    33    34   ar
    36     7     8    1
    37     8     9    1
    38    20    11    1
    39     9     7    1
    40     6     1    1
    41    34    28   ar
    42    38    36    1
