@<TRIPOS>MOLECULE
*****
 32 33 0 0 0
SMALL
GASTEIGER

@<TRIPOS>ATOM
      1 C          63.8392   90.7861   13.3050 C.3     1  UNL1        0.0899
      2 C          65.9028   92.3541   13.1228 C.2     1  UNL1        0.4014
      3 O          65.6365   92.8654   14.5076 O.2     1  UNL1       -0.2264
      4 N          65.0041   91.3144   12.5215 N.am    1  UNL1       -0.2711
      5 H          65.1789   90.9787   11.6126 H       1  UNL1        0.1527
      6 O          67.0678   92.8823   12.3393 O.3     1  UNL1       -0.4419
      7 C          66.0960   94.6155   11.5966 C.3     1  UNL1        0.0437
      8 C          66.8496   93.4751   10.9789 C.3     1  UNL1        0.1378
      9 C          67.6032   92.3348   10.3611 C.3     1  UNL1        0.0437
     10 C          66.6315   94.0680    9.6183 C.3     1  UNL1        0.0437
     11 C          62.5401   90.4957   12.6136 C.3     1  UNL1        0.0775
     12 S          62.4733   89.4307   11.5595 S.3     1  UNL1       -0.1380
     13 C          61.1568   89.0760   10.9340 C.3     1  UNL1        0.0672
     14 C          60.5647   87.7154   11.1531 C.3     1  UNL1        0.0967
     15 C          61.3467   86.4892   10.7859 C.2     1  UNL1        0.2236
     16 O          61.3896   86.0262    9.3598 O.2     1  UNL1       -0.2751
     17 N          62.0859   85.7260   11.8448 N.am    1  UNL1       -0.3004
     18 H          62.0578   86.0299   12.7808 H       1  UNL1        0.1497
     19 C          62.8679   84.4998   11.4775 C.3     1  UNL1        0.1179
     20 C          62.7682   83.2653   12.3238 C.ar    1  UNL1        0.0166
     21 C          62.8034   81.9105   11.6810 C.ar    1  UNL1        0.0005
     22 C          62.7038   80.6761   12.5272 C.ar    1  UNL1        0.0204
     23 C          62.5689   80.7964   14.0163 C.ar    1  UNL1        0.0989
     24 N          62.5336   82.1512   14.6591 N.ar    1  UNL1       -0.2426
     25 C          62.6333   83.3856   13.8128 C.ar    1  UNL1        0.0962
     26 C          63.9733   90.5483   14.7800 C.3     1  UNL1        0.0469
     27 C          63.8263   89.1615   15.3325 C.ar    1  UNL1       -0.0205
     28 C          64.3992   87.9926   14.5871 C.ar    1  UNL1       -0.0042
     29 C          64.2522   86.6058   15.1396 C.ar    1  UNL1       -0.0003
     30 C          63.5323   86.3880   16.4374 C.ar    1  UNL1       -0.0000
     31 C          62.9594   87.5568   17.1827 C.ar    1  UNL1       -0.0003
     32 C          63.1064   88.9436   16.6302 C.ar    1  UNL1       -0.0042
@<TRIPOS>BOND
     1     7     8    1
     2     8     9    1
     3     8    10    1
     4     8     6    1
     5     6     2    1
     6     2     3    2
     7     2     4   am
     8     4     1    1
     9     1    11    1
    10    11    12    1
    11    12    13    1
    12    13    14    1
    13    14    15    1
    14    15    16    2
    15    15    17   am
    16    17    19    1
    17    19    20    1
    18    20    21   ar
    19    21    22   ar
    20    22    23   ar
    21    23    24   ar
    22    24    25   ar
    23     1    26    1
    24    26    27    1
    25    27    28   ar
    26    28    29   ar
    27    29    30   ar
    28    30    31   ar
    29    31    32   ar
    30    25    20   ar
    31    32    27   ar
    32     4     5    1
    33    17    18    1
@<TRIPOS>MOLECULE
*****
 32 33 0 0 0
SMALL
GASTEIGER

@<TRIPOS>ATOM
      1 C          63.9649   90.8180   13.3403 C.3     1  UNL1        0.0899
      2 C          66.1426   92.2173   13.1182 C.2     1  UNL1        0.4014
      3 O          66.8392   91.2832   14.0627 O.2     1  UNL1       -0.2264
      4 N          64.7054   91.9847   12.7569 N.am    1  UNL1       -0.2711
      5 H          64.2482   92.5978   12.1370 H       1  UNL1        0.1527
      6 O          66.8832   93.3840   12.5348 O.3     1  UNL1       -0.4419
      7 C          66.1044   94.9713   11.3627 C.3     1  UNL1        0.0437
      8 C          66.7917   93.6717   11.0655 C.3     1  UNL1        0.1378
      9 C          67.4790   92.3720   10.7683 C.3     1  UNL1        0.0437
     10 C          66.7002   93.9593    9.5961 C.3     1  UNL1        0.0437
     11 C          63.1948   89.8942   12.4438 C.3     1  UNL1        0.0775
     12 S          62.3756   90.4520   11.3180 S.3     1  UNL1       -0.1380
     13 C          60.8779   90.3953   11.3804 C.3     1  UNL1        0.0672
     14 C          60.1783   89.0688   11.4112 C.3     1  UNL1        0.0967
     15 C          60.7099   87.9216   10.6041 C.2     1  UNL1        0.2236
     16 O          60.7202   87.9996    9.1062 O.2     1  UNL1       -0.2751
     17 N          61.2312   86.6965   11.2950 N.am    1  UNL1       -0.3004
     18 H          61.2244   86.6453   12.2782 H       1  UNL1        0.1497
     19 C          61.7627   85.5493   10.4880 C.3     1  UNL1        0.1179
     20 C          62.7112   84.5690   11.1121 C.ar    1  UNL1        0.0166
     21 C          62.7259   84.3832   12.6004 C.ar    1  UNL1        0.0005
     22 C          63.6744   83.4029   13.2245 C.ar    1  UNL1        0.0204
     23 C          64.6081   82.6085   12.3602 C.ar    1  UNL1        0.0989
     24 N          64.5934   82.7942   10.8719 N.ar    1  UNL1       -0.2426
     25 C          63.6449   83.7745   10.2478 C.ar    1  UNL1        0.0962
     26 C          63.9944   90.5750   14.8203 C.3     1  UNL1        0.0469
     27 C          63.8386   89.1822   15.3549 C.ar    1  UNL1       -0.0205
     28 C          64.4400   88.0236   14.6159 C.ar    1  UNL1       -0.0042
     29 C          64.2842   86.6307   15.1505 C.ar    1  UNL1       -0.0003
     30 C          63.5270   86.3965   16.4241 C.ar    1  UNL1       -0.0000
     31 C          62.9256   87.5551   17.1629 C.ar    1  UNL1       -0.0003
     32 C          63.0814   88.9479   16.6283 C.ar    1  UNL1       -0.0042
@<TRIPOS>BOND
     1     7     8    1
     2     8     9    1
     3     8    10    1
     4     8     6    1
     5     6     2    1
     6     2     3    2
     7     2     4   am
     8     4     1    1
     9     1    11    1
    10    11    12    1
    11    12    13    1
    12    13    14    1
    13    14    15    1
    14    15    16    2
    15    15    17   am
    16    17    19    1
    17    19    20    1
    18    20    21   ar
    19    21    22   ar
    20    22    23   ar
    21    23    24   ar
    22    24    25   ar
    23     1    26    1
    24    26    27    1
    25    27    28   ar
    26    28    29   ar
    27    29    30   ar
    28    30    31   ar
    29    31    32   ar
    30    25    20   ar
    31    32    27   ar
    32     4     5    1
    33    17    18    1
@<TRIPOS>MOLECULE
*****
 32 33 0 0 0
SMALL
GASTEIGER

@<TRIPOS>ATOM
      1 C          63.8059   85.1399   14.0863 C.3     1  UNL1        0.0899
      2 C          62.5167   86.3385   12.1755 C.2     1  UNL1        0.4014
      3 O          61.8103   85.0565   11.8478 O.2     1  UNL1       -0.2264
      4 N          63.5145   86.3802   13.2948 N.am    1  UNL1       -0.2711
      5 H          63.9782   87.2217   13.5098 H       1  UNL1        0.1527
      6 O          62.2254   87.5789   11.3839 O.3     1  UNL1       -0.4419
      7 C          62.2474   87.0044    9.3420 C.3     1  UNL1        0.0437
      8 C          61.2093   87.5435   10.2811 C.3     1  UNL1        0.1378
      9 C          60.1713   88.0825   11.2201 C.3     1  UNL1        0.0437
     10 C          60.1932   87.5080    9.1782 C.3     1  UNL1        0.0437
     11 C          63.1869   84.9511   15.4395 C.3     1  UNL1        0.0775
     12 S          63.5250   85.8929   16.5569 S.3     1  UNL1       -0.1380
     13 C          62.5974   87.0233   16.8916 C.3     1  UNL1        0.0672
     14 C          63.1545   88.3633   17.2711 C.3     1  UNL1        0.0967
     15 C          63.1506   89.4861   16.2765 C.2     1  UNL1        0.2236
     16 O          63.0777   90.9074   16.7503 O.2     1  UNL1       -0.2751
     17 N          63.2197   89.1876   14.8081 N.am    1  UNL1       -0.3004
     18 H          63.2676   88.2547   14.4972 H       1  UNL1        0.1497
     19 C          63.2159   90.3104   13.8135 C.3     1  UNL1        0.1179
     20 C          64.4952   91.0167   13.4748 C.ar    1  UNL1        0.0166
     21 C          65.6583   90.9562   14.4200 C.ar    1  UNL1        0.0005
     22 C          66.9375   91.6625   14.0813 C.ar    1  UNL1        0.0204
     23 C          67.0535   92.4294   12.7974 C.ar    1  UNL1        0.0989
     24 N          65.8904   92.4900   11.8522 N.ar    1  UNL1       -0.2426
     25 C          64.6112   91.7836   12.1909 C.ar    1  UNL1        0.0962
     26 C          64.7163   84.0883   13.5247 C.3     1  UNL1        0.0469
     27 C          64.1637   83.0170   12.6319 C.ar    1  UNL1       -0.0205
     28 C          64.4718   83.0313   11.1639 C.ar    1  UNL1       -0.0042
     29 C          63.9192   81.9600   10.2711 C.ar    1  UNL1       -0.0003
     30 C          63.0587   80.8743   10.8464 C.ar    1  UNL1       -0.0000
     31 C          62.7507   80.8600   12.3143 C.ar    1  UNL1       -0.0003
     32 C          63.3032   81.9313   13.2071 C.ar    1  UNL1       -0.0042
@<TRIPOS>BOND
     1     7     8    1
     2     8     9    1
     3     8    10    1
     4     8     6    1
     5     6     2    1
     6     2     3    2
     7     2     4   am
     8     4     1    1
     9     1    11    1
    10    11    12    1
    11    12    13    1
    12    13    14    1
    13    14    15    1
    14    15    16    2
    15    15    17   am
    16    17    19    1
    17    19    20    1
    18    20    21   ar
    19    21    22   ar
    20    22    23   ar
    21    23    24   ar
    22    24    25   ar
    23     1    26    1
    24    26    27    1
    25    27    28   ar
    26    28    29   ar
    27    29    30   ar
    28    30    31   ar
    29    31    32   ar
    30    25    20   ar
    31    32    27   ar
    32     4     5    1
    33    17    18    1
@<TRIPOS>MOLECULE
*****
 32 33 0 0 0
SMALL
GASTEIGER

@<TRIPOS>ATOM
      1 C          63.8669   90.4428   14.9631 C.3     1  UNL1        0.0899
      2 C          65.2554   92.2700   16.1810 C.2     1  UNL1        0.4014
      3 O          64.0708   92.5971   17.0409 O.2     1  UNL1       -0.2264
      4 N          65.1535   91.1928   15.1420 N.am    1  UNL1       -0.2711
      5 H          65.9311   90.9781   14.5776 H       1  UNL1        0.1527
      6 O          66.5421   93.0201   16.3599 O.3     1  UNL1       -0.4419
      7 C          68.4209   92.0356   16.3845 C.3     1  UNL1        0.0437
      8 C          67.6583   92.8404   15.3742 C.3     1  UNL1        0.1378
      9 C          66.8958   93.6452   14.3639 C.3     1  UNL1        0.0437
     10 C          68.7746   92.6607   14.3885 C.3     1  UNL1        0.0437
     11 C          63.1269   90.5229   13.6608 C.3     1  UNL1        0.0775
     12 S          63.8480   90.9382   12.4128 S.3     1  UNL1       -0.1380
     13 C          63.1748   90.8074   11.0788 C.3     1  UNL1        0.0672
     14 C          61.7153   90.4691   11.0052 C.3     1  UNL1        0.0967
     15 C          61.2848   89.0511   10.7733 C.2     1  UNL1        0.2236
     16 O          60.2060   88.4464   11.6221 O.2     1  UNL1       -0.2751
     17 N          61.9333   88.2376    9.6926 N.am    1  UNL1       -0.3004
     18 H          62.6413   88.6345    9.1355 H       1  UNL1        0.1497
     19 C          61.5028   86.8196    9.4607 C.3     1  UNL1        0.1179
     20 C          62.2452   85.6935   10.1172 C.ar    1  UNL1        0.0166
     21 C          63.1199   84.7927    9.2967 C.ar    1  UNL1        0.0005
     22 C          63.8622   83.6667    9.9532 C.ar    1  UNL1        0.0204
     23 C          63.7298   83.4415   11.4303 C.ar    1  UNL1        0.0989
     24 N          62.8550   84.3423   12.2508 N.ar    1  UNL1       -0.2426
     25 C          62.1127   85.4683   11.5943 C.ar    1  UNL1        0.0962
     26 C          63.3203   89.6125   16.0865 C.3     1  UNL1        0.0469
     27 C          63.4905   88.1223   16.0694 C.ar    1  UNL1       -0.0205
     28 C          62.8517   87.2822   17.1354 C.ar    1  UNL1       -0.0042
     29 C          63.0219   85.7920   17.1183 C.ar    1  UNL1       -0.0003
     30 C          63.8311   85.1419   16.0353 C.ar    1  UNL1       -0.0000
     31 C          64.4699   85.9820   14.9695 C.ar    1  UNL1       -0.0003
     32 C          64.2996   87.4722   14.9866 C.ar    1  UNL1       -0.0042
@<TRIPOS>BOND
     1     7     8    1
     2     8     9    1
     3     8    10    1
     4     8     6    1
     5     6     2    1
     6     2     3    2
     7     2     4   am
     8     4     1    1
     9     1    11    1
    10    11    12    1
    11    12    13    1
    12    13    14    1
    13    14    15    1
    14    15    16    2
    15    15    17   am
    16    17    19    1
    17    19    20    1
    18    20    21   ar
    19    21    22   ar
    20    22    23   ar
    21    23    24   ar
    22    24    25   ar
    23     1    26    1
    24    26    27    1
    25    27    28   ar
    26    28    29   ar
    27    29    30   ar
    28    30    31   ar
    29    31    32   ar
    30    25    20   ar
    31    32    27   ar
    32     4     5    1
    33    17    18    1
@<TRIPOS>MOLECULE
*****
 32 33 0 0 0
SMALL
GASTEIGER

@<TRIPOS>ATOM
      1 C          62.9512   89.8401   12.9660 C.3     1  UNL1        0.0899
      2 C          61.5982   89.2099   10.8394 C.2     1  UNL1        0.4014
      3 O          62.8258   89.4063   10.0002 O.2     1  UNL1       -0.2264
      4 N          61.6609   89.4268   12.3224 N.am    1  UNL1       -0.2711
      5 H          60.8552   89.2979   12.8733 H       1  UNL1        0.1527
      6 O          60.3078   88.7967   10.1958 O.3     1  UNL1       -0.4419
      7 C          59.7376   88.4712    8.1787 C.3     1  UNL1        0.0437
      8 C          60.2725   87.6075    9.2823 C.3     1  UNL1        0.1378
      9 C          60.8074   86.7438   10.3859 C.3     1  UNL1        0.0437
     10 C          60.2371   86.4183    8.3688 C.3     1  UNL1        0.0437
     11 C          63.8671   88.8023   13.5440 C.3     1  UNL1        0.0775
     12 S          64.3032   88.9006   14.9758 S.3     1  UNL1       -0.1380
     13 C          63.2836   89.0958   16.0587 C.3     1  UNL1        0.0672
     14 C          63.1456   88.0773   17.1512 C.3     1  UNL1        0.0967
     15 C          62.6055   86.7129   16.8407 C.2     1  UNL1        0.2236
     16 O          61.1676   86.3931   17.1239 O.2     1  UNL1       -0.2751
     17 N          63.5033   85.6681   16.2469 N.am    1  UNL1       -0.3004
     18 H          64.4470   85.8779   16.0611 H       1  UNL1        0.1497
     19 C          62.9631   84.3036   15.9364 C.3     1  UNL1        0.1179
     20 C          62.8866   83.8330   14.5142 C.ar    1  UNL1        0.0166
     21 C          63.2477   84.7647   13.3955 C.ar    1  UNL1        0.0005
     22 C          63.1712   84.2941   11.9733 C.ar    1  UNL1        0.0204
     23 C          62.7336   82.8918   11.6698 C.ar    1  UNL1        0.0989
     24 N          62.3725   81.9602   12.7885 N.ar    1  UNL1       -0.2426
     25 C          62.4490   82.4307   14.2107 C.ar    1  UNL1        0.0962
     26 C          63.3256   91.2912   13.0316 C.3     1  UNL1        0.0469
     27 C          64.6248   91.7578   12.4448 C.ar    1  UNL1       -0.0205
     28 C          65.8346   91.9013   13.3200 C.ar    1  UNL1       -0.0042
     29 C          67.1337   92.3679   12.7332 C.ar    1  UNL1       -0.0003
     30 C          67.2232   92.6909   11.2711 C.ar    1  UNL1       -0.0000
     31 C          66.0135   92.5474   10.3959 C.ar    1  UNL1       -0.0003
     32 C          64.7143   92.0808   10.9827 C.ar    1  UNL1       -0.0042
@<TRIPOS>BOND
     1     7     8    1
     2     8     9    1
     3     8    10    1
     4     8     6    1
     5     6     2    1
     6     2     3    2
     7     2     4   am
     8     4     1    1
     9     1    11    1
    10    11    12    1
    11    12    13    1
    12    13    14    1
    13    14    15    1
    14    15    16    2
    15    15    17   am
    16    17    19    1
    17    19    20    1
    18    20    21   ar
    19    21    22   ar
    20    22    23   ar
    21    23    24   ar
    22    24    25   ar
    23     1    26    1
    24    26    27    1
    25    27    28   ar
    26    28    29   ar
    27    29    30   ar
    28    30    31   ar
    29    31    32   ar
    30    25    20   ar
    31    32    27   ar
    32     4     5    1
    33    17    18    1
@<TRIPOS>MOLECULE
*****
 32 33 0 0 0
SMALL
GASTEIGER

@<TRIPOS>ATOM
      1 C          63.9336   90.7629   12.8527 C.3     1  UNL1        0.0899
      2 C          65.4752   92.4134   11.5684 C.2     1  UNL1        0.4014
      3 O          64.5700   92.3305   10.3752 O.2     1  UNL1       -0.2264
      4 N          65.1571   91.6296   12.8071 N.am    1  UNL1       -0.2711
      5 H          65.7512   91.6840   13.5903 H       1  UNL1        0.1527
      6 O          66.6987   93.2801   11.5229 O.3     1  UNL1       -0.4419
      7 C          67.8729   92.3465   10.0231 C.3     1  UNL1        0.0437
      8 C          67.2668   93.7068   10.2018 C.3     1  UNL1        0.1378
      9 C          66.6606   95.0672   10.3806 C.3     1  UNL1        0.0437
     10 C          67.8349   94.1336    8.8808 C.3     1  UNL1        0.0437
     11 C          63.8513   89.6327   13.8354 C.3     1  UNL1        0.0775
     12 S          63.8656   89.9169   15.3081 S.3     1  UNL1       -0.1380
     13 C          62.8038   89.3361   16.1944 C.3     1  UNL1        0.0672
     14 C          63.1534   88.2563   17.1750 C.3     1  UNL1        0.0967
     15 C          62.9389   86.8165   16.8131 C.2     1  UNL1        0.2236
     16 O          62.0353   85.9596   17.6492 O.2     1  UNL1       -0.2751
     17 N          63.6281   86.2336   15.6150 N.am    1  UNL1       -0.3004
     18 H          64.2211   86.7961   15.0661 H       1  UNL1        0.1497
     19 C          63.4136   84.7939   15.2530 C.3     1  UNL1        0.1179
     20 C          63.4632   84.3663   13.8161 C.ar    1  UNL1        0.0166
     21 C          62.6627   85.1058   12.7855 C.ar    1  UNL1        0.0005
     22 C          62.7123   84.6782   11.3486 C.ar    1  UNL1        0.0204
     23 C          63.5625   83.5111   10.9423 C.ar    1  UNL1        0.0989
     24 N          64.3630   82.7715   11.9729 N.ar    1  UNL1       -0.2426
     25 C          64.3133   83.1991   13.4098 C.ar    1  UNL1        0.0962
     26 C          62.7925   91.0264   11.9154 C.3     1  UNL1        0.0469
     27 C          61.9986   89.8814   11.3597 C.ar    1  UNL1       -0.0205
     28 C          62.5853   89.0128   10.2867 C.ar    1  UNL1       -0.0042
     29 C          61.7914   87.8678    9.7311 C.ar    1  UNL1       -0.0003
     30 C          60.4108   87.5915   10.2485 C.ar    1  UNL1       -0.0000
     31 C          59.8242   88.4601   11.3215 C.ar    1  UNL1       -0.0003
     32 C          60.6181   89.6051   11.8771 C.ar    1  UNL1       -0.0042
@<TRIPOS>BOND
     1     7     8    1
     2     8     9    1
     3     8    10    1
     4     8     6    1
     5     6     2    1
     6     2     3    2
     7     2     4   am
     8     4     1    1
     9     1    11    1
    10    11    12    1
    11    12    13    1
    12    13    14    1
    13    14    15    1
    14    15    16    2
    15    15    17   am
    16    17    19    1
    17    19    20    1
    18    20    21   ar
    19    21    22   ar
    20    22    23   ar
    21    23    24   ar
    22    24    25   ar
    23     1    26    1
    24    26    27    1
    25    27    28   ar
    26    28    29   ar
    27    29    30   ar
    28    30    31   ar
    29    31    32   ar
    30    25    20   ar
    31    32    27   ar
    32     4     5    1
    33    17    18    1
@<TRIPOS>MOLECULE
*****
 32 33 0 0 0
SMALL
GASTEIGER

@<TRIPOS>ATOM
      1 C          62.7071   86.0814   12.2245 C.3     1  UNL1        0.0899
      2 C          62.8120   84.1145   13.9187 C.2     1  UNL1        0.4014
      3 O          61.9155   84.8714   14.8531 O.2     1  UNL1       -0.2264
      4 N          63.2078   84.7194   12.6043 N.am    1  UNL1       -0.2711
      5 H          63.7963   84.2226   11.9910 H       1  UNL1        0.1527
      6 O          63.3128   82.7525   14.2985 O.3     1  UNL1       -0.4419
      7 C          64.2769   81.6764   12.7454 C.3     1  UNL1        0.0437
      8 C          62.9610   81.5622   13.4563 C.3     1  UNL1        0.1378
      9 C          61.6451   81.4481   14.1671 C.3     1  UNL1        0.0437
     10 C          62.6092   80.3719   12.6140 C.3     1  UNL1        0.0437
     11 C          63.4163   87.3065   12.7205 C.3     1  UNL1        0.0775
     12 S          63.0354   88.6584   12.1939 S.3     1  UNL1       -0.1380
     13 C          62.9635   89.8327   13.1243 C.3     1  UNL1        0.0672
     14 C          64.0899   90.1053   14.0765 C.3     1  UNL1        0.0967
     15 C          64.8487   91.3964   13.9906 C.2     1  UNL1        0.2236
     16 O          65.2172   92.1346   15.2433 O.2     1  UNL1       -0.2751
     17 N          65.2391   91.9492   12.6519 N.am    1  UNL1       -0.3004
     18 H          64.9973   91.4648   11.8297 H       1  UNL1        0.1497
     19 C          65.9980   93.2403   12.5660 C.3     1  UNL1        0.1179
     20 C          66.6027   93.6695   11.2621 C.ar    1  UNL1        0.0166
     21 C          67.3589   92.6811   10.4247 C.ar    1  UNL1        0.0005
     22 C          67.9637   93.1103    9.1209 C.ar    1  UNL1        0.0204
     23 C          67.8122   94.5279    8.6545 C.ar    1  UNL1        0.0989
     24 N          67.0560   95.5162    9.4919 N.ar    1  UNL1       -0.2426
     25 C          66.4513   95.0870   10.7957 C.ar    1  UNL1        0.0962
     26 C          61.4970   86.2182   11.3486 C.3     1  UNL1        0.0469
     27 C          61.5871   85.8881    9.8881 C.ar    1  UNL1       -0.0205
     28 C          60.4374   86.1999    8.9764 C.ar    1  UNL1       -0.0042
     29 C          60.5275   85.8698    7.5160 C.ar    1  UNL1       -0.0003
     30 C          61.7673   85.2279    6.9673 C.ar    1  UNL1       -0.0000
     31 C          62.9168   84.9161    7.8789 C.ar    1  UNL1       -0.0003
     32 C          62.8267   85.2462    9.3394 C.ar    1  UNL1       -0.0042
@<TRIPOS>BOND
     1     7     8    1
     2     8     9    1
     3     8    10    1
     4     8     6    1
     5     6     2    1
     6     2     3    2
     7     2     4   am
     8     4     1    1
     9     1    11    1
    10    11    12    1
    11    12    13    1
    12    13    14    1
    13    14    15    1
    14    15    16    2
    15    15    17   am
    16    17    19    1
    17    19    20    1
    18    20    21   ar
    19    21    22   ar
    20    22    23   ar
    21    23    24   ar
    22    24    25   ar
    23     1    26    1
    24    26    27    1
    25    27    28   ar
    26    28    29   ar
    27    29    30   ar
    28    30    31   ar
    29    31    32   ar
    30    25    20   ar
    31    32    27   ar
    32     4     5    1
    33    17    18    1
@<TRIPOS>MOLECULE
*****
 32 33 0 0 0
SMALL
GASTEIGER

@<TRIPOS>ATOM
      1 C          63.8901   89.9564   13.2443 C.3     1  UNL1        0.0899
      2 C          63.4232   88.7354   15.4895 C.2     1  UNL1        0.4014
      3 O          62.1793   89.5528   15.6754 O.2     1  UNL1       -0.2264
      4 N          64.2786   88.9371   14.2739 N.am    1  UNL1       -0.2711
      5 H          65.0950   88.4006   14.1519 H       1  UNL1        0.1527
      6 O          63.8117   87.7161   16.5192 O.3     1  UNL1       -0.4419
      7 C          62.3736   86.5630   17.5691 C.3     1  UNL1        0.0437
      8 C          63.2976   86.3109   16.4147 C.3     1  UNL1        0.1378
      9 C          64.2216   86.0587   15.2604 C.3     1  UNL1        0.0437
     10 C          62.7835   84.9055   16.3102 C.3     1  UNL1        0.0437
     11 C          63.1585   89.5304   12.0060 C.3     1  UNL1        0.0775
     12 S          61.9018   90.2394   11.5962 S.3     1  UNL1       -0.1380
     13 C          60.5810   89.8146   12.1664 C.3     1  UNL1        0.0672
     14 C          59.8223   88.6829   11.5389 C.3     1  UNL1        0.0967
     15 C          60.5345   87.7000   10.6578 C.2     1  UNL1        0.2236
     16 O          60.5355   87.8900    9.1699 O.2     1  UNL1       -0.2751
     17 N          61.2458   86.5269   11.2645 N.am    1  UNL1       -0.3004
     18 H          61.2452   86.4022   12.2411 H       1  UNL1        0.1497
     19 C          61.9581   85.5440   10.3834 C.3     1  UNL1        0.1179
     20 C          62.8005   84.4631   10.9933 C.ar    1  UNL1        0.0166
     21 C          62.6785   84.1523   12.4557 C.ar    1  UNL1        0.0005
     22 C          63.5209   83.0714   13.0656 C.ar    1  UNL1        0.0204
     23 C          64.4855   82.3014   12.2131 C.ar    1  UNL1        0.0989
     24 N          64.6076   82.6122   10.7508 N.ar    1  UNL1       -0.2426
     25 C          63.7651   83.6930   10.1409 C.ar    1  UNL1        0.0962
     26 C          64.2333   91.4017   13.4529 C.3     1  UNL1        0.0469
     27 C          65.5137   91.7771   14.1381 C.ar    1  UNL1       -0.0205
     28 C          65.4970   92.2095   15.5744 C.ar    1  UNL1       -0.0042
     29 C          66.7774   92.5850   16.2595 C.ar    1  UNL1       -0.0003
     30 C          68.0746   92.5281   15.5084 C.ar    1  UNL1       -0.0000
     31 C          68.0913   92.0957   14.0722 C.ar    1  UNL1       -0.0003
     32 C          66.8109   91.7202   13.3870 C.ar    1  UNL1       -0.0042
@<TRIPOS>BOND
     1     7     8    1
     2     8     9    1
     3     8    10    1
     4     8     6    1
     5     6     2    1
     6     2     3    2
     7     2     4   am
     8     4     1    1
     9     1    11    1
    10    11    12    1
    11    12    13    1
    12    13    14    1
    13    14    15    1
    14    15    16    2
    15    15    17   am
    16    17    19    1
    17    19    20    1
    18    20    21   ar
    19    21    22   ar
    20    22    23   ar
    21    23    24   ar
    22    24    25   ar
    23     1    26    1
    24    26    27    1
    25    27    28   ar
    26    28    29   ar
    27    29    30   ar
    28    30    31   ar
    29    31    32   ar
    30    25    20   ar
    31    32    27   ar
    32     4     5    1
    33    17    18    1
@<TRIPOS>MOLECULE
*****
 32 33 0 0 0
SMALL
GASTEIGER

@<TRIPOS>ATOM
      1 C          64.2894   91.8479   11.4379 C.3     1  UNL1        0.0899
      2 C          66.3888   93.2840   10.9088 C.2     1  UNL1        0.4014
      3 O          67.0994   92.0612   10.4092 O.2     1  UNL1       -0.2264
      4 N          64.9838   93.1774   11.4232 N.am    1  UNL1       -0.2711
      5 H          64.5174   93.9800   11.7511 H       1  UNL1        0.1527
      6 O          67.0832   94.6135   10.8940 O.3     1  UNL1       -0.4419
      7 C          67.2862   94.9228    8.8053 C.3     1  UNL1        0.0437
      8 C          66.6453   95.6777    9.9319 C.3     1  UNL1        0.1378
      9 C          66.0045   96.4327   11.0585 C.3     1  UNL1        0.0437
     10 C          66.2074   96.7420    8.9697 C.3     1  UNL1        0.0437
     11 C          64.4330   90.9399   12.6232 C.3     1  UNL1        0.0775
     12 S          65.1136   91.4313   13.8663 S.3     1  UNL1       -0.1380
     13 C          64.7125   90.8880   15.2057 C.3     1  UNL1        0.0672
     14 C          63.4798   90.0430   15.3338 C.3     1  UNL1        0.0967
     15 C          63.6032   88.5719   15.5993 C.2     1  UNL1        0.2236
     16 O          63.0419   87.9879   16.8618 O.2     1  UNL1       -0.2751
     17 N          64.2880   87.6847   14.6022 N.am    1  UNL1       -0.3004
     18 H          64.6564   88.0679   13.7736 H       1  UNL1        0.1497
     19 C          64.4114   86.2136   14.8677 C.3     1  UNL1        0.1179
     20 C          63.9461   85.2244   13.8405 C.ar    1  UNL1        0.0166
     21 C          63.0875   85.6781   12.6973 C.ar    1  UNL1        0.0005
     22 C          62.6222   84.6890   11.6702 C.ar    1  UNL1        0.0204
     23 C          63.0154   83.2461   11.7863 C.ar    1  UNL1        0.0989
     24 N          63.8739   82.7924   12.9295 N.ar    1  UNL1       -0.2426
     25 C          64.3393   83.7815   13.9566 C.ar    1  UNL1        0.0962
     26 C          63.4514   91.4264   10.2674 C.3     1  UNL1        0.0469
     27 C          62.3721   90.4006   10.4484 C.ar    1  UNL1       -0.0205
     28 C          61.0680   90.7875   11.0808 C.ar    1  UNL1       -0.0042
     29 C          59.9887   89.7617   11.2618 C.ar    1  UNL1       -0.0003
     30 C          60.2134   88.3490   10.8103 C.ar    1  UNL1       -0.0000
     31 C          61.5173   87.9621   10.1779 C.ar    1  UNL1       -0.0003
     32 C          62.5967   88.9879    9.9970 C.ar    1  UNL1       -0.0042
@<TRIPOS>BOND
     1     7     8    1
     2     8     9    1
     3     8    10    1
     4     8     6    1
     5     6     2    1
     6     2     3    2
     7     2     4   am
     8     4     1    1
     9     1    11    1
    10    11    12    1
    11    12    13    1
    12    13    14    1
    13    14    15    1
    14    15    16    2
    15    15    17   am
    16    17    19    1
    17    19    20    1
    18    20    21   ar
    19    21    22   ar
    20    22    23   ar
    21    23    24   ar
    22    24    25   ar
    23     1    26    1
    24    26    27    1
    25    27    28   ar
    26    28    29   ar
    27    29    30   ar
    28    30    31   ar
    29    31    32   ar
    30    25    20   ar
    31    32    27   ar
    32     4     5    1
    33    17    18    1
