@<TRIPOS>MOLECULE
*****
 34 39 0 0 0
SMALL
GASTEIGER

@<TRIPOS>ATOM
      1 CL         62.7836   82.5597   10.2515 Cl      1  UNL1       -0.0598
      2 C          63.3659   82.7940   11.6138 C.ar    1  UNL1        0.1540
      3 N          63.9181   81.6432   12.4015 N.ar    1  UNL1       -0.2310
      4 C          64.5005   81.8775   13.7639 C.ar    1  UNL1        0.0999
      5 C          64.5306   83.2628   14.3385 C.ar    1  UNL1        0.0223
      6 C          63.9784   84.4136   13.5507 C.ar    1  UNL1        0.0241
      7 C          63.8717   85.8786   13.8547 C.ar    1  UNL1        0.0550
      8 C          64.2811   86.6883   15.0492 C.ar    1  UNL1        0.1048
      9 N          64.0422   88.1690   15.0692 N.ar    1  UNL1       -0.2119
     10 C          63.3939   88.8401   13.8947 C.ar    1  UNL1        0.2231
     11 N          62.9845   88.0304   12.7002 N.ar    1  UNL1       -0.1961
     12 C          63.2234   86.5497   12.6802 C.ar    1  UNL1        0.1482
     13 N          62.9295   85.4994   11.6504 N.ar    1  UNL1       -0.3125
     14 C          63.3961   84.1792   12.1884 C.ar    1  UNL1        0.0898
     15 C          62.2825   85.7290   10.3167 C.3     1  UNL1        0.0869
     16 C          62.8883   85.4239    8.9788 C.3     1  UNL1        0.0226
     17 C          61.8964   85.8103    7.9220 C.3     1  UNL1        0.0020
     18 C          60.6776   86.3542    8.6067 C.3     1  UNL1        0.0020
     19 C          60.9164   86.3039   10.0867 C.3     1  UNL1        0.0226
     20 N          63.1550   90.3208   13.9147 N.pl3   1  UNL1       -0.2679
     21 H          62.4723   90.7013   14.5134 H       1  UNL1        0.1565
     22 C          63.9563   91.2219   13.0226 C.ar    1  UNL1        0.1344
     23 C          63.7047   91.2301   11.5439 C.ar    1  UNL1        0.0358
     24 C          64.5061   92.1312   10.6517 C.ar    1  UNL1        0.0190
     25 C          65.5591   93.0241   11.2384 C.ar    1  UNL1        0.0675
     26 C          65.8107   93.0158   12.7171 C.ar    1  UNL1        0.1147
     27 N          65.0093   92.1147   13.6092 N.ar    1  UNL1       -0.2277
     28 N          66.3605   93.9251   10.3463 N.pl3   1  UNL1       -0.3035
     29 C          66.1280   95.4068   10.3730 C.3     1  UNL1        0.1079
     30 C          66.9294   96.3078    9.4809 C.3     1  UNL1        0.0903
     31 N          67.9632   95.7273    8.5622 N.3     1  UNL1       -0.2946
     32 C          68.1956   94.2457    8.5354 C.3     1  UNL1        0.0903
     33 C          67.3943   93.3446    9.4275 C.3     1  UNL1        0.1079
     34 H          68.8530   96.1606    8.8089 H       1  UNL1        0.1233
@<TRIPOS>BOND
     1     1     2    1
     2     2     3   ar
     3     3     4   ar
     4     4     5   ar
     5     5     6   ar
     6     6     7   ar
     7     7     8   ar
     8     8     9   ar
     9     9    10   ar
    10    10    20    1
    11    20    22    1
    12    22    23   ar
    13    23    24   ar
    14    24    25   ar
    15    25    28    1
    16    28    29    1
    17    29    30    1
    18    30    31    1
    19    31    32    1
    20    32    33    1
    21    25    26   ar
    22    26    27   ar
    23    10    11   ar
    24    11    12   ar
    25    12    13   ar
    26    13    15    1
    27    15    16    1
    28    16    17    1
    29    17    18    1
    30    18    19    1
    31    13    14   ar
    32    14     2   ar
    33    14     6   ar
    34    12     7   ar
    35    19    15    1
    36    27    22   ar
    37    33    28    1
    38    20    21    1
    39    31    34    1
@<TRIPOS>MOLECULE
*****
 34 39 0 0 0
SMALL
GASTEIGER

@<TRIPOS>ATOM
      1 CL         63.2893   81.5598   14.5258 Cl      1  UNL1       -0.0598
      2 C          63.1323   81.6700   13.0381 C.ar    1  UNL1        0.1540
      3 N          63.1534   80.4343   12.1881 N.ar    1  UNL1       -0.2310
      4 C          62.9964   80.5445   10.7004 C.ar    1  UNL1        0.0999
      5 C          62.8182   81.8904   10.0627 C.ar    1  UNL1        0.0223
      6 C          62.7971   83.1261   10.9127 C.ar    1  UNL1        0.0241
      7 C          62.6391   84.5777   10.5696 C.ar    1  UNL1        0.0550
      8 C          62.4488   85.2847    9.2604 C.ar    1  UNL1        0.1048
      9 N          62.3179   86.7786    9.2268 N.ar    1  UNL1       -0.2119
     10 C          62.3773   87.5656   10.5023 C.ar    1  UNL1        0.2231
     11 N          62.5676   86.8587   11.8115 N.ar    1  UNL1       -0.1961
     12 C          62.6984   85.3647   11.8451 C.ar    1  UNL1        0.1482
     13 N          62.8931   84.3994   12.9766 N.ar    1  UNL1       -0.3125
     14 C          62.9541   83.0159   12.4004 C.ar    1  UNL1        0.0898
     15 C          63.0069   84.7552   14.4294 C.3     1  UNL1        0.0869
     16 C          64.1663   85.4512   15.0785 C.3     1  UNL1        0.0226
     17 C          63.8572   85.6036   16.5383 C.3     1  UNL1        0.0020
     18 C          62.5068   85.0018   16.7916 C.3     1  UNL1        0.0020
     19 C          61.9813   84.4775   15.4881 C.3     1  UNL1        0.0226
     20 N          62.2464   89.0595   10.4687 N.pl3   1  UNL1       -0.2679
     21 H          61.5799   89.4821    9.8802 H       1  UNL1        0.1565
     22 C          63.1310   89.9094   11.3318 C.ar    1  UNL1        0.1344
     23 C          63.7981   91.1234   10.7562 C.ar    1  UNL1        0.0358
     24 C          64.6827   91.9733   11.6194 C.ar    1  UNL1        0.0190
     25 C          64.9003   91.6093   13.0582 C.ar    1  UNL1        0.0675
     26 C          64.2333   90.3953   13.6338 C.ar    1  UNL1        0.1147
     27 N          63.3486   89.5453   12.7706 N.ar    1  UNL1       -0.2277
     28 N          65.7850   92.4592   13.9214 N.pl3   1  UNL1       -0.3035
     29 C          66.3196   93.7589   13.3971 C.3     1  UNL1        0.1079
     30 C          67.2042   94.6087   14.2603 C.3     1  UNL1        0.0903
     31 N          67.5542   94.1590   15.6477 N.3     1  UNL1       -0.2946
     32 C          67.0196   92.8593   16.1720 C.3     1  UNL1        0.0903
     33 C          66.1350   92.0094   15.3089 C.3     1  UNL1        0.1079
     34 H          67.2315   94.8881   16.2838 H       1  UNL1        0.1233
@<TRIPOS>BOND
     1     1     2    1
     2     2     3   ar
     3     3     4   ar
     4     4     5   ar
     5     5     6   ar
     6     6     7   ar
     7     7     8   ar
     8     8     9   ar
     9     9    10   ar
    10    10    20    1
    11    20    22    1
    12    22    23   ar
    13    23    24   ar
    14    24    25   ar
    15    25    28    1
    16    28    29    1
    17    29    30    1
    18    30    31    1
    19    31    32    1
    20    32    33    1
    21    25    26   ar
    22    26    27   ar
    23    10    11   ar
    24    11    12   ar
    25    12    13   ar
    26    13    15    1
    27    15    16    1
    28    16    17    1
    29    17    18    1
    30    18    19    1
    31    13    14   ar
    32    14     2   ar
    33    14     6   ar
    34    12     7   ar
    35    19    15    1
    36    27    22   ar
    37    33    28    1
    38    20    21    1
    39    31    34    1
