@<TRIPOS>MOLECULE
*****
 38 42 0 0 0
SMALL
GASTEIGER

@<TRIPOS>ATOM
      1 C          63.5454   82.9994   13.5658 C.3     1  UNL1        0.0666
      2 S          64.2577   82.8936   12.2500 S.3     1  UNL1       -0.0756
      3 C          62.0693   85.3138   12.3050 C.3     1  UNL1        0.1340
      4 N          62.7414   84.7605   11.0835 N.ar    1  UNL1       -0.2884
      5 C          63.7473   83.6481   11.0582 C.ar    1  UNL1        0.1932
      6 N          64.1533   83.4226    9.6319 N.ar    1  UNL1       -0.1221
      7 N          63.3984   84.3956    8.7757 N.ar    1  UNL1       -0.1282
      8 C          62.5257   85.2226    9.6728 C.ar    1  UNL1        0.1668
      9 C          61.6000   86.3190    9.2359 C.ar    1  UNL1        0.0361
     10 C          60.5371   86.0408    8.2147 C.ar    1  UNL1        0.0031
     11 C          59.6114   87.1372    7.7778 C.ar    1  UNL1        0.0002
     12 C          59.7486   88.5119    8.3622 C.ar    1  UNL1        0.0045
     13 C          60.8115   88.7902    9.3834 C.ar    1  UNL1        0.0532
     14 C          61.7372   87.6937    9.8202 C.ar    1  UNL1        0.0075
     15 C          60.9486   90.1648    9.9677 C.2     1  UNL1        0.2427
     16 N          62.2362   90.9192    9.8160 N.am    1  UNL1       -0.3253
     17 O          59.7982   90.7851   10.7037 O.2     1  UNL1       -0.2704
     18 H          62.9913   90.5121    9.3330 H       1  UNL1        0.1453
     19 H          62.3263   91.8215   10.1995 H       1  UNL1        0.1453
     20 C          64.1957   83.7103   14.7156 C.3     1  UNL1        0.0294
     21 C          64.7353   85.0976   14.5313 C.3     1  UNL1        0.0730
     22 N          64.1566   86.2378   15.3156 N.3     1  UNL1       -0.2726
     23 C          63.3250   86.1206   16.5585 C.3     1  UNL1        0.0721
     24 C          62.9624   87.5057   17.0058 C.3     1  UNL1        0.0190
     25 C          63.5700   88.4789   16.0395 C.3     1  UNL1        0.0201
     26 C          63.0581   89.7145   16.7185 C.3     1  UNL1        0.0061
     27 C          63.8898   89.8317   15.4757 C.3     1  UNL1        0.0237
     28 C          64.3081   87.6952   14.9949 C.3     1  UNL1        0.0724
     29 C          64.5545   90.6803   14.4327 C.ar    1  UNL1       -0.0225
     30 C          63.8707   90.9295   13.1211 C.ar    1  UNL1       -0.0043
     31 C          64.5355   91.7782   12.0780 C.ar    1  UNL1        0.0035
     32 C          65.8840   92.3775   12.3466 C.ar    1  UNL1        0.0714
     33 C          66.5678   92.1283   13.6583 C.ar    1  UNL1        0.0035
     34 C          65.9031   91.2796   14.7013 C.ar    1  UNL1       -0.0043
     35 C          66.5488   93.2262   11.3036 C.3     1  UNL1        0.4186
     36 F          67.2135   94.0749   10.2606 F       1  UNL1       -0.1659
     37 F          66.5090   92.0756   10.3421 F       1  UNL1       -0.1659
     38 F          66.5885   94.3767   12.2651 F       1  UNL1       -0.1659
@<TRIPOS>BOND
     1     3     4    1
     2     4     5   ar
     3     5     2    1
     4     2     1    1
     5     1    20    1
     6    20    21    1
     7    21    22    1
     8    22    23    1
     9    23    24    1
    10    25    24    1
    11    25    26    1
    12    26    27    1
    13    27    29    1
    14    29    30   ar
    15    30    31   ar
    16    31    32   ar
    17    32    35    1
    18    35    36    1
    19    35    37    1
    20    35    38    1
    21    32    33   ar
    22    33    34   ar
    23    25    28    1
    24     5     6   ar
    25     6     7   ar
    26     7     8   ar
    27     8     9    1
    28     9    10   ar
    29    10    11   ar
    30    11    12   ar
    31    12    13   ar
    32    13    15    1
    33    15    16   am
    34    15    17    2
    35    13    14   ar
    36     8     4   ar
    37    14     9   ar
    38    28    22    1
    39    27    25    1
    40    34    29   ar
    41    16    18    1
    42    16    19    1
@<TRIPOS>MOLECULE
*****
 38 42 0 0 0
SMALL
GASTEIGER

@<TRIPOS>ATOM
      1 C          62.2342   84.5804   15.6421 C.3     1  UNL1        0.0666
      2 S          63.1134   85.3638   16.5712 S.3     1  UNL1       -0.0756
      3 C          64.5712   86.8310   14.0470 C.3     1  UNL1        0.1340
      4 N          63.9429   87.5178   15.2232 N.ar    1  UNL1       -0.2884
      5 C          63.2729   86.8434   16.3835 C.ar    1  UNL1        0.1932
      6 N          62.7902   87.9084   17.3231 N.ar    1  UNL1       -0.1221
      7 N          63.1620   89.2410   16.7436 N.ar    1  UNL1       -0.1282
      8 C          63.8744   88.9997   15.4458 C.ar    1  UNL1        0.1668
      9 C          64.4221   90.0549   14.5311 C.ar    1  UNL1        0.0361
     10 C          63.6552   90.4578   13.3066 C.ar    1  UNL1        0.0031
     11 C          64.2029   91.5130   12.3919 C.ar    1  UNL1        0.0002
     12 C          65.5176   92.1653   12.7020 C.ar    1  UNL1        0.0045
     13 C          66.2846   91.7625   13.9265 C.ar    1  UNL1        0.0532
     14 C          65.7368   90.7073   14.8411 C.ar    1  UNL1        0.0075
     15 C          67.5992   92.4149   14.2364 C.2     1  UNL1        0.2427
     16 N          68.8596   91.8979   13.6085 N.am    1  UNL1       -0.3253
     17 O          67.6535   93.5843   15.1743 O.2     1  UNL1       -0.2704
     18 H          68.8239   91.1304   12.9930 H       1  UNL1        0.1453
     19 H          69.7224   92.3261   13.8119 H       1  UNL1        0.1453
     20 C          62.6633   83.2230   15.1695 C.3     1  UNL1        0.0294
     21 C          63.9266   83.0700   14.3753 C.3     1  UNL1        0.0730
     22 N          63.8923   83.1927   12.8807 N.3     1  UNL1       -0.2726
     23 C          64.5161   82.2410   11.9034 C.3     1  UNL1        0.0721
     24 C          64.2375   82.7488   10.5197 C.3     1  UNL1        0.0190
     25 C          63.4415   84.0143   10.6419 C.3     1  UNL1        0.0201
     26 C          63.3241   84.2686    9.1683 C.3     1  UNL1        0.0061
     27 C          62.7003   85.2203   10.1456 C.3     1  UNL1        0.0237
     28 C          63.2281   84.2887   12.1010 C.3     1  UNL1        0.0724
     29 C          61.9122   86.4660   10.4233 C.ar    1  UNL1       -0.0225
     30 C          62.5102   87.5621   11.2546 C.ar    1  UNL1       -0.0043
     31 C          61.7221   88.8078   11.5323 C.ar    1  UNL1        0.0035
     32 C          60.3361   88.9574   10.9788 C.ar    1  UNL1        0.0714
     33 C          59.7381   87.8613   10.1475 C.ar    1  UNL1        0.0035
     34 C          60.5262   86.6156    9.8697 C.ar    1  UNL1       -0.0043
     35 C          59.5480   90.2031   11.2565 C.3     1  UNL1        0.4186
     36 F          58.7599   91.4489   11.5342 F       1  UNL1       -0.1659
     37 F          59.1408   89.6483   12.5893 F       1  UNL1       -0.1659
     38 F          59.9553   90.7579    9.9238 F       1  UNL1       -0.1659
@<TRIPOS>BOND
     1     3     4    1
     2     4     5   ar
     3     5     2    1
     4     2     1    1
     5     1    20    1
     6    20    21    1
     7    21    22    1
     8    22    23    1
     9    23    24    1
    10    25    24    1
    11    25    26    1
    12    26    27    1
    13    27    29    1
    14    29    30   ar
    15    30    31   ar
    16    31    32   ar
    17    32    35    1
    18    35    36    1
    19    35    37    1
    20    35    38    1
    21    32    33   ar
    22    33    34   ar
    23    25    28    1
    24     5     6   ar
    25     6     7   ar
    26     7     8   ar
    27     8     9    1
    28     9    10   ar
    29    10    11   ar
    30    11    12   ar
    31    12    13   ar
    32    13    15    1
    33    15    16   am
    34    15    17    2
    35    13    14   ar
    36     8     4   ar
    37    14     9   ar
    38    28    22    1
    39    27    25    1
    40    34    29   ar
    41    16    18    1
    42    16    19    1
@<TRIPOS>MOLECULE
*****
 38 42 0 0 0
SMALL
GASTEIGER

@<TRIPOS>ATOM
      1 C          63.5179   86.5077   16.5265 C.3     1  UNL1        0.0666
      2 S          63.1284   87.8398   17.0954 S.3     1  UNL1       -0.0756
      3 C          63.8547   87.9606   13.9162 C.3     1  UNL1        0.1340
      4 N          63.6398   89.1406   14.8170 N.ar    1  UNL1       -0.2884
      5 C          63.3060   89.0851   16.2783 C.ar    1  UNL1        0.1932
      6 N          63.1809   90.4935   16.7791 N.ar    1  UNL1       -0.1221
      7 N          63.4374   91.4195   15.6272 N.ar    1  UNL1       -0.1282
      8 C          63.7211   90.5834   14.4145 C.ar    1  UNL1        0.1668
      9 C          64.0314   91.0995   13.0407 C.ar    1  UNL1        0.0361
     10 C          63.1085   90.7937   11.8984 C.ar    1  UNL1        0.0031
     11 C          63.4189   91.3098   10.5246 C.ar    1  UNL1        0.0002
     12 C          64.6523   92.1316   10.2932 C.ar    1  UNL1        0.0045
     13 C          65.5752   92.4374   11.4354 C.ar    1  UNL1        0.0532
     14 C          65.2647   91.9213   12.8092 C.ar    1  UNL1        0.0075
     15 C          66.8085   93.2592   11.2038 C.2     1  UNL1        0.2427
     16 N          66.7297   94.7567   11.2408 N.am    1  UNL1       -0.3253
     17 O          68.1204   92.5835   10.9353 O.2     1  UNL1       -0.2704
     18 H          65.8686   95.2001   11.4171 H       1  UNL1        0.1453
     19 H          67.5392   95.2960   11.0888 H       1  UNL1        0.1453
     20 C          62.6889   85.2936   16.8244 C.3     1  UNL1        0.0294
     21 C          61.9938   84.5682   15.7105 C.3     1  UNL1        0.0730
     22 N          62.7804   84.0684   14.5352 N.3     1  UNL1       -0.2726
     23 C          63.8918   83.0621   14.5817 C.3     1  UNL1        0.0721
     24 C          64.3920   82.8590   13.1822 C.3     1  UNL1        0.0190
     25 C          63.5897   83.7396   12.2708 C.3     1  UNL1        0.0201
     26 C          64.2881   83.3346   11.0066 C.3     1  UNL1        0.0061
     27 C          63.1767   84.3409   10.9601 C.3     1  UNL1        0.0237
     28 C          62.5937   84.4871   13.1070 C.3     1  UNL1        0.0724
     29 C          62.2965   85.2690   10.1765 C.ar    1  UNL1       -0.0225
     30 C          62.2403   85.1653    8.6811 C.ar    1  UNL1       -0.0043
     31 C          61.3602   86.0934    7.8976 C.ar    1  UNL1        0.0035
     32 C          60.5363   87.1252    8.6094 C.ar    1  UNL1        0.0714
     33 C          60.5925   87.2288   10.1047 C.ar    1  UNL1        0.0035
     34 C          61.4727   86.3007   10.8883 C.ar    1  UNL1       -0.0043
     35 C          59.6562   88.0533    7.8258 C.3     1  UNL1        0.4186
     36 F          58.7760   88.9814    7.0422 F       1  UNL1       -0.1659
     37 F          58.9737   86.8749    7.1968 F       1  UNL1       -0.1659
     38 F          60.3387   89.2316    8.4548 F       1  UNL1       -0.1659
@<TRIPOS>BOND
     1     3     4    1
     2     4     5   ar
     3     5     2    1
     4     2     1    1
     5     1    20    1
     6    20    21    1
     7    21    22    1
     8    22    23    1
     9    23    24    1
    10    25    24    1
    11    25    26    1
    12    26    27    1
    13    27    29    1
    14    29    30   ar
    15    30    31   ar
    16    31    32   ar
    17    32    35    1
    18    35    36    1
    19    35    37    1
    20    35    38    1
    21    32    33   ar
    22    33    34   ar
    23    25    28    1
    24     5     6   ar
    25     6     7   ar
    26     7     8   ar
    27     8     9    1
    28     9    10   ar
    29    10    11   ar
    30    11    12   ar
    31    12    13   ar
    32    13    15    1
    33    15    16   am
    34    15    17    2
    35    13    14   ar
    36     8     4   ar
    37    14     9   ar
    38    28    22    1
    39    27    25    1
    40    34    29   ar
    41    16    18    1
    42    16    19    1
@<TRIPOS>MOLECULE
*****
 38 42 0 0 0
SMALL
GASTEIGER

@<TRIPOS>ATOM
      1 C          64.6174   82.5717   13.7254 C.3     1  UNL1        0.0666
      2 S          63.6612   82.2547   12.6140 S.3     1  UNL1       -0.0756
      3 C          61.9598   85.0310   12.8314 C.3     1  UNL1        0.1340
      4 N          62.6607   84.5200   11.6077 N.ar    1  UNL1       -0.2884
      5 C          63.4428   83.2439   11.5077 C.ar    1  UNL1        0.1932
      6 N          63.9681   83.1305   10.1073 N.ar    1  UNL1       -0.1221
      7 N          63.5106   84.3366    9.3417 N.ar    1  UNL1       -0.1282
      8 C          62.7026   85.1954   10.2689 C.ar    1  UNL1        0.1668
      9 C          62.0510   86.5003    9.9189 C.ar    1  UNL1        0.0361
     10 C          62.5259   87.7712   10.5587 C.ar    1  UNL1        0.0031
     11 C          61.8742   89.0761   10.2087 C.ar    1  UNL1        0.0002
     12 C          60.7477   89.1101    9.2187 C.ar    1  UNL1        0.0045
     13 C          60.2728   87.8392    8.5789 C.ar    1  UNL1        0.0532
     14 C          60.9245   86.5343    8.9290 C.ar    1  UNL1        0.0075
     15 C          59.1464   87.8733    7.5890 C.2     1  UNL1        0.2427
     16 N          58.9560   89.0741    6.7105 N.am    1  UNL1       -0.3253
     17 O          58.2102   86.7066    7.4777 O.2     1  UNL1       -0.2704
     18 H          59.5704   89.8398    6.7835 H       1  UNL1        0.1453
     19 H          58.2166   89.0964    6.0608 H       1  UNL1        0.1453
     20 C          64.2881   83.6517   14.7130 C.3     1  UNL1        0.0294
     21 C          64.8655   85.0255   14.5426 C.3     1  UNL1        0.0730
     22 N          64.2686   86.1869   15.2808 N.3     1  UNL1       -0.2726
     23 C          63.4792   86.1106   16.5540 C.3     1  UNL1        0.0721
     24 C          63.0791   87.5050   16.9355 C.3     1  UNL1        0.0190
     25 C          63.6212   88.4430   15.8981 C.3     1  UNL1        0.0201
     26 C          63.0843   89.6961   16.5239 C.3     1  UNL1        0.0061
     27 C          63.8737   89.7724   15.2507 C.3     1  UNL1        0.0237
     28 C          64.3564   87.6284   14.8755 C.3     1  UNL1        0.0724
     29 C          64.4753   90.5839   14.1419 C.ar    1  UNL1       -0.0225
     30 C          65.8241   91.2152   14.3211 C.ar    1  UNL1       -0.0043
     31 C          66.4256   92.0267   13.2123 C.ar    1  UNL1        0.0035
     32 C          65.6784   92.2069   11.9242 C.ar    1  UNL1        0.0714
     33 C          64.3296   91.5755   11.7449 C.ar    1  UNL1        0.0035
     34 C          63.7280   90.7640   12.8538 C.ar    1  UNL1       -0.0043
     35 C          66.2800   93.0184   10.8153 C.3     1  UNL1        0.4186
     36 F          66.8816   93.8299    9.7064 F       1  UNL1       -0.1659
     37 F          65.0058   93.8010   10.6969 F       1  UNL1       -0.1659
     38 F          67.5541   92.2357   10.9338 F       1  UNL1       -0.1659
@<TRIPOS>BOND
     1     3     4    1
     2     4     5   ar
     3     5     2    1
     4     2     1    1
     5     1    20    1
     6    20    21    1
     7    21    22    1
     8    22    23    1
     9    23    24    1
    10    25    24    1
    11    25    26    1
    12    26    27    1
    13    27    29    1
    14    29    30   ar
    15    30    31   ar
    16    31    32   ar
    17    32    35    1
    18    35    36    1
    19    35    37    1
    20    35    38    1
    21    32    33   ar
    22    33    34   ar
    23    25    28    1
    24     5     6   ar
    25     6     7   ar
    26     7     8   ar
    27     8     9    1
    28     9    10   ar
    29    10    11   ar
    30    11    12   ar
    31    12    13   ar
    32    13    15    1
    33    15    16   am
    34    15    17    2
    35    13    14   ar
    36     8     4   ar
    37    14     9   ar
    38    28    22    1
    39    27    25    1
    40    34    29   ar
    41    16    18    1
    42    16    19    1
@<TRIPOS>MOLECULE
*****
 38 42 0 0 0
SMALL
GASTEIGER

@<TRIPOS>ATOM
      1 C          60.1305   87.7082    9.6831 C.3     1  UNL1        0.0666
      2 S          61.0570   88.8874    9.6527 S.3     1  UNL1       -0.0756
      3 C          62.9633   91.5095   10.0276 C.3     1  UNL1        0.1340
      4 N          62.8379   90.3657   10.9899 N.ar    1  UNL1       -0.2884
      5 C          61.9617   89.1605   10.8176 C.ar    1  UNL1        0.1932
      6 N          62.1490   88.2762   12.0147 N.ar    1  UNL1       -0.1221
      7 N          63.1410   88.9350   12.9269 N.ar    1  UNL1       -0.1282
      8 C          63.5668   90.2264   12.2936 C.ar    1  UNL1        0.1668
      9 C          64.5490   91.2063   12.8637 C.ar    1  UNL1        0.0361
     10 C          65.0728   91.0189   14.2568 C.ar    1  UNL1        0.0031
     11 C          66.0549   91.9988   14.8269 C.ar    1  UNL1        0.0002
     12 C          66.5133   93.1662   14.0039 C.ar    1  UNL1        0.0045
     13 C          65.9895   93.3536   12.6109 C.ar    1  UNL1        0.0532
     14 C          65.0073   92.3736   12.0408 C.ar    1  UNL1        0.0075
     15 C          66.4479   94.5210   11.7881 C.2     1  UNL1        0.2427
     16 N          67.2277   94.2901   10.5277 N.am    1  UNL1       -0.3253
     17 O          66.1266   95.9193   12.2256 O.2     1  UNL1       -0.2704
     18 H          67.4387   93.3723   10.2405 H       1  UNL1        0.1453
     19 H          67.5286   95.0562    9.9876 H       1  UNL1        0.1453
     20 C          60.6061   86.3681    9.2057 C.3     1  UNL1        0.0294
     21 C          62.0647   86.1411    8.9394 C.3     1  UNL1        0.0730
     22 N          62.7860   85.0176    9.6231 N.3     1  UNL1       -0.2726
     23 C          63.3458   83.7952    8.9581 C.3     1  UNL1        0.0721
     24 C          63.9799   82.9414   10.0159 C.3     1  UNL1        0.0190
     25 C          63.8120   83.6361   11.3347 C.3     1  UNL1        0.0201
     26 C          64.5118   82.5914   12.1525 C.3     1  UNL1        0.0061
     27 C          63.9520   83.8139   12.8175 C.3     1  UNL1        0.0237
     28 C          63.0741   84.9194   11.0919 C.3     1  UNL1        0.0724
     29 C          63.7096   84.6223   14.0575 C.ar    1  UNL1       -0.0225
     30 C          64.5067   85.8680   14.3085 C.ar    1  UNL1       -0.0043
     31 C          64.2643   86.6764   15.5485 C.ar    1  UNL1        0.0035
     32 C          63.2249   86.2391   16.5376 C.ar    1  UNL1        0.0714
     33 C          62.4279   84.9934   16.2867 C.ar    1  UNL1        0.0035
     34 C          62.6703   84.1850   15.0467 C.ar    1  UNL1       -0.0043
     35 C          62.9825   87.0475   17.7777 C.3     1  UNL1        0.4186
     36 F          62.7402   87.8559   19.0178 F       1  UNL1       -0.1659
     37 F          63.3709   88.2948   17.0404 F       1  UNL1       -0.1659
     38 F          62.5942   85.8002   18.5149 F       1  UNL1       -0.1659
@<TRIPOS>BOND
     1     3     4    1
     2     4     5   ar
     3     5     2    1
     4     2     1    1
     5     1    20    1
     6    20    21    1
     7    21    22    1
     8    22    23    1
     9    23    24    1
    10    25    24    1
    11    25    26    1
    12    26    27    1
    13    27    29    1
    14    29    30   ar
    15    30    31   ar
    16    31    32   ar
    17    32    35    1
    18    35    36    1
    19    35    37    1
    20    35    38    1
    21    32    33   ar
    22    33    34   ar
    23    25    28    1
    24     5     6   ar
    25     6     7   ar
    26     7     8   ar
    27     8     9    1
    28     9    10   ar
    29    10    11   ar
    30    11    12   ar
    31    12    13   ar
    32    13    15    1
    33    15    16   am
    34    15    17    2
    35    13    14   ar
    36     8     4   ar
    37    14     9   ar
    38    28    22    1
    39    27    25    1
    40    34    29   ar
    41    16    18    1
    42    16    19    1
@<TRIPOS>MOLECULE
*****
 38 42 0 0 0
SMALL
GASTEIGER

@<TRIPOS>ATOM
      1 C          60.5088   89.3689    9.9692 C.3     1  UNL1        0.0666
      2 S          61.8425   89.9947   10.2510 S.3     1  UNL1       -0.0756
      3 C          64.3924   91.7609   11.2652 C.3     1  UNL1        0.1340
      4 N          63.5139   90.9045   12.1282 N.ar    1  UNL1       -0.2884
      5 C          62.3419   90.0926   11.6620 C.ar    1  UNL1        0.1932
      6 N          61.7568   89.3959   12.8546 N.ar    1  UNL1       -0.1221
      7 N          62.5673   89.7771   14.0579 N.ar    1  UNL1       -0.1282
      8 C          63.6532   90.7094   13.6090 C.ar    1  UNL1        0.1668
      9 C          64.6955   91.3366   14.4867 C.ar    1  UNL1        0.0361
     10 C          64.3462   91.7550   15.8842 C.ar    1  UNL1        0.0031
     11 C          65.3885   92.3822   16.7620 C.ar    1  UNL1        0.0002
     12 C          66.7800   92.5910   16.2421 C.ar    1  UNL1        0.0045
     13 C          67.1292   92.1727   14.8445 C.ar    1  UNL1        0.0532
     14 C          66.0869   91.5455   13.9669 C.ar    1  UNL1        0.0075
     15 C          68.5207   92.3816   14.3248 C.2     1  UNL1        0.2427
     16 N          68.9888   91.6323   13.1126 N.am    1  UNL1       -0.3253
     17 O          69.4440   93.3397   15.0172 O.2     1  UNL1       -0.2704
     18 H          68.3828   91.0034   12.6581 H       1  UNL1        0.1453
     19 H          69.9021   91.7694   12.7714 H       1  UNL1        0.1453
     20 C          60.3808   87.8760    9.8986 C.3     1  UNL1        0.0294
     21 C          61.1698   87.1026    8.8840 C.3     1  UNL1        0.0730
     22 N          62.0360   85.9586    9.3209 N.3     1  UNL1       -0.2726
     23 C          62.6130   84.8991    8.4295 C.3     1  UNL1        0.0721
     24 C          63.4109   83.9589    9.2836 C.3     1  UNL1        0.0190
     25 C          63.3269   84.4373   10.7028 C.3     1  UNL1        0.0201
     26 C          64.1796   83.3495   11.2856 C.3     1  UNL1        0.0061
     27 C          63.6025   84.4090   12.1770 C.3     1  UNL1        0.0237
     28 C          62.4771   85.6731   10.7258 C.3     1  UNL1        0.0724
     29 C          63.4284   85.0043   13.5427 C.ar    1  UNL1       -0.0225
     30 C          64.1624   86.2590   13.9131 C.ar    1  UNL1       -0.0043
     31 C          63.9883   86.8543   15.2788 C.ar    1  UNL1        0.0035
     32 C          63.0803   86.1949   16.2742 C.ar    1  UNL1        0.0714
     33 C          62.3463   84.9403   15.9038 C.ar    1  UNL1        0.0035
     34 C          62.5204   84.3449   14.5381 C.ar    1  UNL1       -0.0043
     35 C          62.9062   86.7903   17.6399 C.3     1  UNL1        0.4186
     36 F          62.7321   87.3856   19.0058 F       1  UNL1       -0.1659
     37 F          63.4594   88.0928   17.1427 F       1  UNL1       -0.1659
     38 F          62.3531   85.4877   18.1372 F       1  UNL1       -0.1659
@<TRIPOS>BOND
     1     3     4    1
     2     4     5   ar
     3     5     2    1
     4     2     1    1
     5     1    20    1
     6    20    21    1
     7    21    22    1
     8    22    23    1
     9    23    24    1
    10    25    24    1
    11    25    26    1
    12    26    27    1
    13    27    29    1
    14    29    30   ar
    15    30    31   ar
    16    31    32   ar
    17    32    35    1
    18    35    36    1
    19    35    37    1
    20    35    38    1
    21    32    33   ar
    22    33    34   ar
    23    25    28    1
    24     5     6   ar
    25     6     7   ar
    26     7     8   ar
    27     8     9    1
    28     9    10   ar
    29    10    11   ar
    30    11    12   ar
    31    12    13   ar
    32    13    15    1
    33    15    16   am
    34    15    17    2
    35    13    14   ar
    36     8     4   ar
    37    14     9   ar
    38    28    22    1
    39    27    25    1
    40    34    29   ar
    41    16    18    1
    42    16    19    1
@<TRIPOS>MOLECULE
*****
 38 42 0 0 0
SMALL
GASTEIGER

@<TRIPOS>ATOM
      1 C          62.9157   86.9219   17.5014 C.3     1  UNL1        0.0666
      2 S          62.2169   88.0433   16.7914 S.3     1  UNL1       -0.0756
      3 C          64.2339   88.3055   14.2395 C.3     1  UNL1        0.1340
      4 N          63.9083   89.3918   15.2213 N.ar    1  UNL1       -0.2884
      5 C          62.9812   89.2713   16.3943 C.ar    1  UNL1        0.1932
      6 N          62.9526   90.5944   17.1004 N.ar    1  UNL1       -0.1221
      7 N          63.8620   91.5327   16.3638 N.ar    1  UNL1       -0.1282
      8 C          64.4527   90.7895   15.2024 C.ar    1  UNL1        0.1668
      9 C          65.4183   91.3461   14.1984 C.ar    1  UNL1        0.0361
     10 C          66.8817   91.4109   14.5212 C.ar    1  UNL1        0.0031
     11 C          67.8472   91.9675   13.5172 C.ar    1  UNL1        0.0002
     12 C          67.3492   92.4595   12.1906 C.ar    1  UNL1        0.0045
     13 C          65.8858   92.3948   11.8678 C.ar    1  UNL1        0.0532
     14 C          64.9203   91.8381   12.8718 C.ar    1  UNL1        0.0075
     15 C          65.3879   92.8868   10.5412 C.2     1  UNL1        0.2427
     16 N          66.1977   93.8755    9.7559 N.am    1  UNL1       -0.3253
     17 O          64.0802   92.3900    9.9998 O.2     1  UNL1       -0.2704
     18 H          67.0560   94.2015   10.1112 H       1  UNL1        0.1453
     19 H          65.8709   94.1984    8.8852 H       1  UNL1        0.1453
     20 C          63.5044   85.7879   16.7155 C.3     1  UNL1        0.0294
     21 C          62.6081   84.8650   15.9442 C.3     1  UNL1        0.0730
     22 N          63.1171   84.1852   14.7078 N.3     1  UNL1       -0.2726
     23 C          64.0180   82.9866   14.6681 C.3     1  UNL1        0.0721
     24 C          64.2721   82.6452   13.2297 C.3     1  UNL1        0.0190
     25 C          63.5282   83.6328   12.3805 C.3     1  UNL1        0.0201
     26 C          63.9565   83.0600   11.0620 C.3     1  UNL1        0.0061
     27 C          63.0556   84.2586   11.1017 C.3     1  UNL1        0.0237
     28 C          62.8143   84.5846   13.2940 C.3     1  UNL1        0.0724
     29 C          62.2625   85.3118   10.3864 C.ar    1  UNL1       -0.0225
     30 C          61.4649   86.3117   11.1702 C.ar    1  UNL1       -0.0043
     31 C          60.6719   87.3649   10.4549 C.ar    1  UNL1        0.0035
     32 C          60.6764   87.4183    8.9558 C.ar    1  UNL1        0.0714
     33 C          61.4740   86.4185    8.1721 C.ar    1  UNL1        0.0035
     34 C          62.2670   85.3652    8.8874 C.ar    1  UNL1       -0.0043
     35 C          59.8833   88.4716    8.2405 C.3     1  UNL1        0.4186
     36 F          59.0902   89.5249    7.5252 F       1  UNL1       -0.1659
     37 F          60.2056   89.4529    9.3282 F       1  UNL1       -0.1659
     38 F          59.5611   87.4903    7.1529 F       1  UNL1       -0.1659
@<TRIPOS>BOND
     1     3     4    1
     2     4     5   ar
     3     5     2    1
     4     2     1    1
     5     1    20    1
     6    20    21    1
     7    21    22    1
     8    22    23    1
     9    23    24    1
    10    25    24    1
    11    25    26    1
    12    26    27    1
    13    27    29    1
    14    29    30   ar
    15    30    31   ar
    16    31    32   ar
    17    32    35    1
    18    35    36    1
    19    35    37    1
    20    35    38    1
    21    32    33   ar
    22    33    34   ar
    23    25    28    1
    24     5     6   ar
    25     6     7   ar
    26     7     8   ar
    27     8     9    1
    28     9    10   ar
    29    10    11   ar
    30    11    12   ar
    31    12    13   ar
    32    13    15    1
    33    15    16   am
    34    15    17    2
    35    13    14   ar
    36     8     4   ar
    37    14     9   ar
    38    28    22    1
    39    27    25    1
    40    34    29   ar
    41    16    18    1
    42    16    19    1
@<TRIPOS>MOLECULE
*****
 38 42 0 0 0
SMALL
GASTEIGER

@<TRIPOS>ATOM
      1 C          61.1166   90.4773   10.4998 C.3     1  UNL1        0.0666
      2 S          60.1248   89.3809   10.2465 S.3     1  UNL1       -0.0756
      3 C          62.3569   87.7838   12.0119 C.3     1  UNL1        0.1340
      4 N          61.6276   87.2452   10.8169 N.ar    1  UNL1       -0.2884
      5 C          60.6016   87.9793   10.0054 C.ar    1  UNL1        0.1932
      6 N          60.1362   87.0657    8.9105 N.ar    1  UNL1       -0.1221
      7 N          60.8745   85.7670    9.0454 N.ar    1  UNL1       -0.1282
      8 C          61.7962   85.8778   10.2236 C.ar    1  UNL1        0.1668
      9 C          62.7238   84.8090   10.7210 C.ar    1  UNL1        0.0361
     10 C          63.4722   83.9512    9.7443 C.ar    1  UNL1        0.0031
     11 C          64.3997   82.8825   10.2418 C.ar    1  UNL1        0.0002
     12 C          64.5787   82.6716   11.7161 C.ar    1  UNL1        0.0045
     13 C          63.8303   83.5294   12.6929 C.ar    1  UNL1        0.0532
     14 C          62.9028   84.5981   12.1953 C.ar    1  UNL1        0.0075
     15 C          64.0094   83.3184   14.1671 C.2     1  UNL1        0.2427
     16 N          65.0010   84.1473   14.9284 N.am    1  UNL1       -0.3253
     17 O          63.1969   82.2785   14.8801 O.2     1  UNL1       -0.2704
     18 H          65.5343   84.8299   14.4604 H       1  UNL1        0.1453
     19 H          65.1186   84.0089   15.8960 H       1  UNL1        0.1453
     20 C          62.4958   90.3905    9.9163 C.3     1  UNL1        0.0294
     21 C          63.3296   91.6294    9.7745 C.3     1  UNL1        0.0730
     22 N          64.2361   92.0552   10.8911 N.3     1  UNL1       -0.2726
     23 C          65.2056   93.1991   10.8521 C.3     1  UNL1        0.0721
     24 C          65.9010   93.2627   12.1797 C.3     1  UNL1        0.0190
     25 C          65.3612   92.1582   13.0392 C.3     1  UNL1        0.0201
     26 C          66.2063   92.4662   14.2395 C.3     1  UNL1        0.0061
     27 C          65.2368   91.3223   14.2785 C.3     1  UNL1        0.0237
     28 C          64.3322   91.4119   12.2428 C.3     1  UNL1        0.0724
     29 C          64.6052   90.1794   15.0165 C.ar    1  UNL1       -0.0225
     30 C          63.7591   90.4439   16.2265 C.ar    1  UNL1       -0.0043
     31 C          63.1275   89.3009   16.9645 C.ar    1  UNL1        0.0035
     32 C          63.3420   87.8934   16.4925 C.ar    1  UNL1        0.0714
     33 C          64.1882   87.6288   15.2825 C.ar    1  UNL1        0.0035
     34 C          64.8198   88.7718   14.5445 C.ar    1  UNL1       -0.0043
     35 C          62.7104   86.7504   17.2305 C.3     1  UNL1        0.4186
     36 F          62.0788   85.6073   17.9685 F       1  UNL1       -0.1659
     37 F          62.7875   87.5327   18.5080 F       1  UNL1       -0.1659
     38 F          62.6334   85.9682   15.9529 F       1  UNL1       -0.1659
@<TRIPOS>BOND
     1     3     4    1
     2     4     5   ar
     3     5     2    1
     4     2     1    1
     5     1    20    1
     6    20    21    1
     7    21    22    1
     8    22    23    1
     9    23    24    1
    10    25    24    1
    11    25    26    1
    12    26    27    1
    13    27    29    1
    14    29    30   ar
    15    30    31   ar
    16    31    32   ar
    17    32    35    1
    18    35    36    1
    19    35    37    1
    20    35    38    1
    21    32    33   ar
    22    33    34   ar
    23    25    28    1
    24     5     6   ar
    25     6     7   ar
    26     7     8   ar
    27     8     9    1
    28     9    10   ar
    29    10    11   ar
    30    11    12   ar
    31    12    13   ar
    32    13    15    1
    33    15    16   am
    34    15    17    2
    35    13    14   ar
    36     8     4   ar
    37    14     9   ar
    38    28    22    1
    39    27    25    1
    40    34    29   ar
    41    16    18    1
    42    16    19    1
@<TRIPOS>MOLECULE
*****
 38 42 0 0 0
SMALL
GASTEIGER

@<TRIPOS>ATOM
      1 C          58.8518   90.9876    4.8488 C.3     1  UNL1        0.0666
      2 S          59.3952   92.3138    4.4061 S.3     1  UNL1       -0.0756
      3 C          60.0355   94.1272    1.7696 C.3     1  UNL1        0.1340
      4 N          61.0005   93.2162    2.4687 N.ar    1  UNL1       -0.2884
      5 C          60.7062   92.3826    3.6805 C.ar    1  UNL1        0.1932
      6 N          61.9531   91.6299    4.0395 N.ar    1  UNL1       -0.1221
      7 N          63.0181   91.9983    3.0495 N.ar    1  UNL1       -0.1282
      8 C          62.4294   92.9787    2.0786 C.ar    1  UNL1        0.1668
      9 C          63.1441   93.6105    0.9210 C.ar    1  UNL1        0.0361
     10 C          64.0720   94.7660    1.1528 C.ar    1  UNL1        0.0031
     11 C          64.7867   95.3979   -0.0048 C.ar    1  UNL1        0.0002
     12 C          64.5733   94.8742   -1.3942 C.ar    1  UNL1        0.0045
     13 C          63.6453   93.7187   -1.6259 C.ar    1  UNL1        0.0532
     14 C          62.9307   93.0869   -0.4683 C.ar    1  UNL1        0.0075
     15 C          63.4320   93.1951   -3.0153 C.2     1  UNL1        0.2427
     16 N          64.4868   92.3530   -3.6696 N.am    1  UNL1       -0.3253
     17 O          62.1638   93.5137   -3.7503 O.2     1  UNL1       -0.2704
     18 H          65.3192   92.1439   -3.1872 H       1  UNL1        0.1453
     19 H          64.3468   92.0093   -4.5815 H       1  UNL1        0.1453
     20 C          59.5996   90.1706    5.8604 C.3     1  UNL1        0.0294
     21 C          58.8726   89.5761    7.0300 C.3     1  UNL1        0.0730
     22 N          59.5099   88.4794    7.8306 N.3     1  UNL1       -0.2726
     23 C          59.2032   87.0152    7.7210 C.3     1  UNL1        0.0721
     24 C          60.0696   86.2853    8.7041 C.3     1  UNL1        0.0190
     25 C          60.9118   87.2983    9.4213 C.3     1  UNL1        0.0201
     26 C          61.6337   86.3135   10.2925 C.3     1  UNL1        0.0061
     27 C          61.9405   87.7777   10.4022 C.3     1  UNL1        0.0237
     28 C          60.5659   88.6544    8.8815 C.3     1  UNL1        0.0724
     29 C          62.7114   88.8999   11.0317 C.ar    1  UNL1       -0.0225
     30 C          63.2135   88.7679   12.4391 C.ar    1  UNL1       -0.0043
     31 C          63.9844   89.8901   13.0687 C.ar    1  UNL1        0.0035
     32 C          64.2533   91.1442   12.2909 C.ar    1  UNL1        0.0714
     33 C          63.7512   91.2761   10.8836 C.ar    1  UNL1        0.0035
     34 C          62.9803   90.1540   10.2540 C.ar    1  UNL1       -0.0043
     35 C          65.0243   92.2663   12.9205 C.3     1  UNL1        0.4186
     36 F          65.7953   93.3885   13.5501 F       1  UNL1       -0.1659
     37 F          65.0189   93.0031   11.6139 F       1  UNL1       -0.1659
     38 F          65.0297   91.5296   14.2271 F       1  UNL1       -0.1659
@<TRIPOS>BOND
     1     3     4    1
     2     4     5   ar
     3     5     2    1
     4     2     1    1
     5     1    20    1
     6    20    21    1
     7    21    22    1
     8    22    23    1
     9    23    24    1
    10    25    24    1
    11    25    26    1
    12    26    27    1
    13    27    29    1
    14    29    30   ar
    15    30    31   ar
    16    31    32   ar
    17    32    35    1
    18    35    36    1
    19    35    37    1
    20    35    38    1
    21    32    33   ar
    22    33    34   ar
    23    25    28    1
    24     5     6   ar
    25     6     7   ar
    26     7     8   ar
    27     8     9    1
    28     9    10   ar
    29    10    11   ar
    30    11    12   ar
    31    12    13   ar
    32    13    15    1
    33    15    16   am
    34    15    17    2
    35    13    14   ar
    36     8     4   ar
    37    14     9   ar
    38    28    22    1
    39    27    25    1
    40    34    29   ar
    41    16    18    1
    42    16    19    1
