@<TRIPOS>MOLECULE
*****
 28 31 0 0 0
SMALL
GASTEIGER

@<TRIPOS>ATOM
      1 C          64.2940   90.1215   15.1933 C.3     1  UNL1        0.0122
      2 C          64.9843   91.1338   14.3280 C.3     1  UNL1        0.0568
      3 S          66.0757   91.9894   14.8995 S.3     1  UNL1       -0.0816
      4 C          66.7660   93.0017   14.0342 C.2     1  UNL1        0.1482
      5 N          67.8576   93.8573   14.6058 N.pl3   1  UNL1       -0.3380
      6 N          66.3648   93.1585   12.5974 N.2     1  UNL1       -0.2484
      7 C          65.2732   92.3029   12.0258 C.3     1  UNL1        0.1351
      8 C          64.8720   92.4597   10.5891 C.3     1  UNL1        0.1690
      9 O          63.7805   91.6042   10.0176 O.3     1  UNL1       -0.3494
     10 C          63.0903   90.5918   10.8829 C.3     1  UNL1        0.1406
     11 C          63.4915   90.4351   12.3196 C.3     1  UNL1        0.0374
     12 C          64.5830   91.2906   12.8911 C.3     1  UNL1        0.0402
     13 H          68.1209   93.7544   15.5488 H       1  UNL1        0.1442
     14 H          68.3106   94.5217   14.0378 H       1  UNL1        0.1442
     15 C          65.9635   93.3153   11.1605 C.ar    1  UNL1        0.0278
     16 C          65.4438   94.7206   11.0901 C.ar    1  UNL1        0.0021
     17 C          66.1341   95.7330   10.2248 C.ar    1  UNL1        0.0295
     18 C          67.3440   95.3399    9.4300 C.ar    1  UNL1        0.1424
     19 F          68.0343   96.3522    8.5647 F       1  UNL1       -0.2041
     20 C          67.8636   93.9346    9.5005 C.ar    1  UNL1        0.0590
     21 C          67.1734   92.9222   10.3658 C.ar    1  UNL1        0.1402
     22 F          67.6930   91.5169   10.4363 F       1  UNL1       -0.2044
     23 C          61.9987   89.7363   10.3113 C.ar    1  UNL1        0.0442
     24 C          60.5819   90.1627   10.0649 C.ar    1  UNL1        0.1197
     25 N          59.8399   88.9941    9.4871 N.ar    1  UNL1       -0.1679
     26 N          60.7982   87.8454    9.3764 N.ar    1  UNL1       -0.2476
     27 C          60.4784   86.4781    8.8489 C.3     1  UNL1        0.1537
     28 C          62.1324   88.3041    9.8858 C.ar    1  UNL1        0.0947
@<TRIPOS>BOND
     1     2     1    1
     2     2     3    1
     3     3     4    1
     4     4     5    1
     5     4     6    2
     6     6     7    1
     7     7    15    1
     8    15    16   ar
     9    16    17   ar
    10    17    18   ar
    11    18    19    1
    12    18    20   ar
    13    20    21   ar
    14    21    22    1
    15     7     8    1
    16     8     9    1
    17     9    10    1
    18    10    23    1
    19    23    24   ar
    20    24    25   ar
    21    25    26   ar
    22    26    27    1
    23    26    28   ar
    24    10    11    1
    25    12    11    1
    26    12     2    1
    27    12     7    1
    28    21    15   ar
    29    28    23   ar
    30     5    13    1
    31     5    14    1
@<TRIPOS>MOLECULE
*****
 28 31 0 0 0
SMALL
GASTEIGER

@<TRIPOS>ATOM
      1 C          63.4407   89.7820   12.7737 C.3     1  UNL1        0.0122
      2 C          63.5640   88.3260   13.1128 C.3     1  UNL1        0.0568
      3 S          64.3654   87.8993   14.3068 S.3     1  UNL1       -0.0816
      4 C          64.4887   86.4433   14.6459 C.2     1  UNL1        0.1482
      5 N          65.2901   86.0166   15.8400 N.pl3   1  UNL1       -0.3380
      6 N          63.8106   85.4141   13.7910 N.2     1  UNL1       -0.2484
      7 C          63.0092   85.8408   12.5969 C.3     1  UNL1        0.1351
      8 C          62.3312   84.8116   11.7419 C.3     1  UNL1        0.1690
      9 O          61.5299   85.2384   10.5479 O.3     1  UNL1       -0.3494
     10 C          61.4066   86.6943   10.2089 C.3     1  UNL1        0.1406
     11 C          62.0846   87.7235   11.0638 C.3     1  UNL1        0.0374
     12 C          62.8859   87.2968   12.2578 C.3     1  UNL1        0.0402
     13 H          65.7351   86.6921   16.4011 H       1  UNL1        0.1442
     14 H          65.3710   85.0610   16.0625 H       1  UNL1        0.1442
     15 C          63.1325   84.3849   12.9359 C.ar    1  UNL1        0.0278
     16 C          64.0628   83.5082   12.1510 C.ar    1  UNL1        0.0021
     17 C          64.1861   82.0522   12.4901 C.ar    1  UNL1        0.0295
     18 C          63.3792   81.4729   13.6141 C.ar    1  UNL1        0.1424
     19 F          63.5025   80.0170   13.9532 F       1  UNL1       -0.2041
     20 C          62.4490   82.3496   14.3990 C.ar    1  UNL1        0.0590
     21 C          62.3257   83.8056   14.0599 C.ar    1  UNL1        0.1402
     22 F          61.3955   84.6823   14.8448 F       1  UNL1       -0.2044
     23 C          60.6052   87.1211    9.0148 C.ar    1  UNL1        0.0442
     24 C          59.8994   86.2095    8.0551 C.ar    1  UNL1        0.1197
     25 N          59.2269   87.0592    7.0180 N.ar    1  UNL1       -0.1679
     26 N          59.5170   88.4960    7.3367 N.ar    1  UNL1       -0.2476
     27 C          59.0392   89.6858    6.5581 C.3     1  UNL1        0.1537
     28 C          60.3688   88.5342    8.5708 C.ar    1  UNL1        0.0947
@<TRIPOS>BOND
     1     2     1    1
     2     2     3    1
     3     3     4    1
     4     4     5    1
     5     4     6    2
     6     6     7    1
     7     7    15    1
     8    15    16   ar
     9    16    17   ar
    10    17    18   ar
    11    18    19    1
    12    18    20   ar
    13    20    21   ar
    14    21    22    1
    15     7     8    1
    16     8     9    1
    17     9    10    1
    18    10    23    1
    19    23    24   ar
    20    24    25   ar
    21    25    26   ar
    22    26    27    1
    23    26    28   ar
    24    10    11    1
    25    12    11    1
    26    12     2    1
    27    12     7    1
    28    21    15   ar
    29    28    23   ar
    30     5    13    1
    31     5    14    1
@<TRIPOS>MOLECULE
*****
 28 31 0 0 0
SMALL
GASTEIGER

@<TRIPOS>ATOM
      1 C          64.5544   84.9960   15.6361 C.3     1  UNL1        0.0122
      2 C          63.8599   84.9874   14.3066 C.3     1  UNL1        0.0568
      3 S          63.3831   83.6929   13.7178 S.3     1  UNL1       -0.0816
      4 C          62.6886   83.6843   12.3883 C.2     1  UNL1        0.1482
      5 N          62.2118   82.3896   11.7996 N.pl3   1  UNL1       -0.3380
      6 N          62.4710   84.9703   11.6475 N.2     1  UNL1       -0.2484
      7 C          62.9478   86.2650   12.2363 C.3     1  UNL1        0.1351
      8 C          62.7302   87.5510   11.4955 C.3     1  UNL1        0.1690
      9 O          63.2070   88.8455   12.0842 O.3     1  UNL1       -0.3494
     10 C          63.9015   88.8541   13.4138 C.3     1  UNL1        0.1406
     11 C          64.1191   87.5681   14.1546 C.3     1  UNL1        0.0374
     12 C          63.6423   86.2735   13.5658 C.3     1  UNL1        0.0402
     13 H          62.3546   81.5456   12.2858 H       1  UNL1        0.1442
     14 H          61.7560   82.3840   10.9270 H       1  UNL1        0.1442
     15 C          62.2534   86.2564   10.9068 C.ar    1  UNL1        0.0278
     16 C          62.9326   85.6601    9.7096 C.ar    1  UNL1        0.0021
     17 C          62.2382   85.6515    8.3801 C.ar    1  UNL1        0.0295
     18 C          60.8644   86.2392    8.2477 C.ar    1  UNL1        0.1424
     19 F          60.1700   86.2307    6.9182 F       1  UNL1       -0.2041
     20 C          60.1852   86.8355    9.4448 C.ar    1  UNL1        0.0590
     21 C          60.8797   86.8441   10.7743 C.ar    1  UNL1        0.1402
     22 F          60.2005   87.4403   11.9714 F       1  UNL1       -0.2044
     23 C          64.3783   90.1488   14.0025 C.ar    1  UNL1        0.0442
     24 C          63.9593   90.7242   15.3229 C.ar    1  UNL1        0.1197
     25 N          64.6799   92.0263   15.5107 N.ar    1  UNL1       -0.1679
     26 N          65.5442   92.2556   14.3063 N.ar    1  UNL1       -0.2476
     27 C          66.4380   93.4378   14.0748 C.3     1  UNL1        0.1537
     28 C          65.3579   91.0952   13.3743 C.ar    1  UNL1        0.0947
@<TRIPOS>BOND
     1     2     1    1
     2     2     3    1
     3     3     4    1
     4     4     5    1
     5     4     6    2
     6     6     7    1
     7     7    15    1
     8    15    16   ar
     9    16    17   ar
    10    17    18   ar
    11    18    19    1
    12    18    20   ar
    13    20    21   ar
    14    21    22    1
    15     7     8    1
    16     8     9    1
    17     9    10    1
    18    10    23    1
    19    23    24   ar
    20    24    25   ar
    21    25    26   ar
    22    26    27    1
    23    26    28   ar
    24    10    11    1
    25    12    11    1
    26    12     2    1
    27    12     7    1
    28    21    15   ar
    29    28    23   ar
    30     5    13    1
    31     5    14    1
@<TRIPOS>MOLECULE
*****
 28 31 0 0 0
SMALL
GASTEIGER

@<TRIPOS>ATOM
      1 C          64.2552   88.0520   14.5536 C.3     1  UNL1        0.0122
      2 C          64.1138   86.6009   14.2009 C.3     1  UNL1        0.0568
      3 S          64.7474   85.5533   15.0675 S.3     1  UNL1       -0.0816
      4 C          64.6061   84.1022   14.7148 C.2     1  UNL1        0.1482
      5 N          65.2397   83.0546   15.5814 N.pl3   1  UNL1       -0.3380
      6 N          63.8312   83.6988   13.4955 N.2     1  UNL1       -0.2484
      7 C          63.1976   84.7464   12.6288 C.3     1  UNL1        0.1351
      8 C          62.4227   84.3430   11.4095 C.3     1  UNL1        0.1690
      9 O          61.7891   85.3906   10.5429 O.3     1  UNL1       -0.3494
     10 C          61.9304   86.8417   10.8957 C.3     1  UNL1        0.1406
     11 C          62.7053   87.2452   12.1150 C.3     1  UNL1        0.0374
     12 C          63.3389   86.1975   12.9815 C.3     1  UNL1        0.0402
     13 H          65.7483   83.3194   16.3817 H       1  UNL1        0.1442
     14 H          65.1470   82.1022   15.3499 H       1  UNL1        0.1442
     15 C          63.0563   83.2954   12.2761 C.ar    1  UNL1        0.0278
     16 C          62.1984   82.3988   13.1189 C.ar    1  UNL1        0.0021
     17 C          62.0571   80.9477   12.7661 C.ar    1  UNL1        0.0295
     18 C          62.7737   80.3932   11.5706 C.ar    1  UNL1        0.1424
     19 F          62.6324   78.9422   11.2179 F       1  UNL1       -0.2041
     20 C          63.6315   81.2898   10.7279 C.ar    1  UNL1        0.0590
     21 C          63.7728   82.7409   11.0807 C.ar    1  UNL1        0.1402
     22 F          64.6307   83.6375   10.2380 F       1  UNL1       -0.2044
     23 C          61.2968   87.8894   10.0290 C.ar    1  UNL1        0.0442
     24 C          61.3111   89.3682   10.2801 C.ar    1  UNL1        0.1197
     25 N          60.5608   90.0349    9.1655 N.ar    1  UNL1       -0.1679
     26 N          60.0828   88.9682    8.2255 N.ar    1  UNL1       -0.2476
     27 C          59.2892   89.1887    6.9718 C.3     1  UNL1        0.1537
     28 C          60.5376   87.6422    8.7592 C.ar    1  UNL1        0.0947
@<TRIPOS>BOND
     1     2     1    1
     2     2     3    1
     3     3     4    1
     4     4     5    1
     5     4     6    2
     6     6     7    1
     7     7    15    1
     8    15    16   ar
     9    16    17   ar
    10    17    18   ar
    11    18    19    1
    12    18    20   ar
    13    20    21   ar
    14    21    22    1
    15     7     8    1
    16     8     9    1
    17     9    10    1
    18    10    23    1
    19    23    24   ar
    20    24    25   ar
    21    25    26   ar
    22    26    27    1
    23    26    28   ar
    24    10    11    1
    25    12    11    1
    26    12     2    1
    27    12     7    1
    28    21    15   ar
    29    28    23   ar
    30     5    13    1
    31     5    14    1
@<TRIPOS>MOLECULE
*****
 28 31 0 0 0
SMALL
GASTEIGER

@<TRIPOS>ATOM
      1 C          61.0271   92.7243    2.7279 C.3     1  UNL1        0.0122
      2 C          61.9037   92.9999    1.5422 C.3     1  UNL1        0.0568
      3 S          63.3957   92.9990    1.6962 S.3     1  UNL1       -0.0816
      4 C          64.2723   93.2746    0.5106 C.2     1  UNL1        0.1482
      5 N          65.7644   93.2737    0.6647 N.pl3   1  UNL1       -0.3380
      6 N          63.6568   93.5510   -0.8290 N.2     1  UNL1       -0.2484
      7 C          62.1646   93.5519   -0.9831 C.3     1  UNL1        0.1351
      8 C          61.5491   93.8284   -2.3227 C.3     1  UNL1        0.1690
      9 O          60.0571   93.8293   -2.4768 O.3     1  UNL1       -0.3494
     10 C          59.1806   93.5537   -1.2911 C.3     1  UNL1        0.1406
     11 C          59.7961   93.2773    0.0485 C.3     1  UNL1        0.0374
     12 C          61.2881   93.2764    0.2025 C.3     1  UNL1        0.0402
     13 H          66.1683   93.0922    1.5439 H       1  UNL1        0.1442
     14 H          66.3397   93.4545   -0.1135 H       1  UNL1        0.1442
     15 C          63.0412   93.8275   -2.1687 C.ar    1  UNL1        0.0278
     16 C          63.4284   92.7097   -3.0911 C.ar    1  UNL1        0.0021
     17 C          64.3049   92.9853   -4.2768 C.ar    1  UNL1        0.0295
     18 C          64.7943   94.3787   -4.5400 C.ar    1  UNL1        0.1424
     19 F          65.6708   94.6542   -5.7256 F       1  UNL1       -0.2041
     20 C          64.4071   95.4963   -3.6176 C.ar    1  UNL1        0.0590
     21 C          63.5305   95.2208   -2.4320 C.ar    1  UNL1        0.1402
     22 F          63.1433   96.3384   -1.5096 F       1  UNL1       -0.2044
     23 C          57.6884   93.5546   -1.4452 C.ar    1  UNL1        0.0442
     24 C          56.8101   92.3416   -1.5297 C.ar    1  UNL1        0.1197
     25 N          55.3915   92.8060   -1.6785 N.ar    1  UNL1       -0.1679
     26 N          55.3932   94.3060   -1.6860 N.ar    1  UNL1       -0.2476
     27 C          54.1871   95.1884   -1.8150 C.3     1  UNL1        0.1537
     28 C          56.8128   94.7687   -1.5418 C.ar    1  UNL1        0.0947
@<TRIPOS>BOND
     1     2     1    1
     2     2     3    1
     3     3     4    1
     4     4     5    1
     5     4     6    2
     6     6     7    1
     7     7    15    1
     8    15    16   ar
     9    16    17   ar
    10    17    18   ar
    11    18    19    1
    12    18    20   ar
    13    20    21   ar
    14    21    22    1
    15     7     8    1
    16     8     9    1
    17     9    10    1
    18    10    23    1
    19    23    24   ar
    20    24    25   ar
    21    25    26   ar
    22    26    27    1
    23    26    28   ar
    24    10    11    1
    25    12    11    1
    26    12     2    1
    27    12     7    1
    28    21    15   ar
    29    28    23   ar
    30     5    13    1
    31     5    14    1
@<TRIPOS>MOLECULE
*****
 28 31 0 0 0
SMALL
GASTEIGER

@<TRIPOS>ATOM
      1 C          62.6447   90.2950   10.5860 C.3     1  UNL1        0.0122
      2 C          63.7088   91.0302   11.3459 C.3     1  UNL1        0.0568
      3 S          64.2019   92.3577   10.8515 S.3     1  UNL1       -0.0816
      4 C          65.2660   93.0928   11.6113 C.2     1  UNL1        0.1482
      5 N          65.7591   94.4204   11.1169 N.pl3   1  UNL1       -0.3380
      6 N          65.8369   92.5005   12.8655 N.2     1  UNL1       -0.2484
      7 C          65.3437   91.1729   13.3600 C.3     1  UNL1        0.1351
      8 C          65.9146   90.5805   14.6142 C.3     1  UNL1        0.1690
      9 O          65.4214   89.2530   15.1086 O.3     1  UNL1       -0.3494
     10 C          64.3574   88.5179   14.3488 C.3     1  UNL1        0.1406
     11 C          63.7865   89.1102   13.0946 C.3     1  UNL1        0.0374
     12 C          64.2797   90.4377   12.6002 C.3     1  UNL1        0.0402
     13 H          65.3844   94.8092   10.2936 H       1  UNL1        0.1442
     14 H          66.4575   94.9029   11.6155 H       1  UNL1        0.1442
     15 C          66.4078   91.9080   14.1198 C.ar    1  UNL1        0.0278
     16 C          66.0557   92.6512   15.3744 C.ar    1  UNL1        0.0021
     17 C          67.1198   93.3864   16.1342 C.ar    1  UNL1        0.0295
     18 C          68.5359   93.3783   15.6395 C.ar    1  UNL1        0.1424
     19 F          69.5999   94.1135   16.3994 F       1  UNL1       -0.2041
     20 C          68.8878   92.6352   14.3850 C.ar    1  UNL1        0.0590
     21 C          67.8238   91.9001   13.6252 C.ar    1  UNL1        0.1402
     22 F          68.1758   91.1569   12.3707 F       1  UNL1       -0.2044
     23 C          63.8642   87.1903   14.8433 C.ar    1  UNL1        0.0442
     24 C          63.2894   86.9132   16.2008 C.ar    1  UNL1        0.1197
     25 N          62.9292   85.4585   16.2636 N.ar    1  UNL1       -0.1679
     26 N          63.2815   84.8365   14.9448 N.ar    1  UNL1       -0.2476
     27 C          63.0896   83.3968   14.5697 C.3     1  UNL1        0.1537
     28 C          63.8593   85.9068   14.0671 C.ar    1  UNL1        0.0947
@<TRIPOS>BOND
     1     2     1    1
     2     2     3    1
     3     3     4    1
     4     4     5    1
     5     4     6    2
     6     6     7    1
     7     7    15    1
     8    15    16   ar
     9    16    17   ar
    10    17    18   ar
    11    18    19    1
    12    18    20   ar
    13    20    21   ar
    14    21    22    1
    15     7     8    1
    16     8     9    1
    17     9    10    1
    18    10    23    1
    19    23    24   ar
    20    24    25   ar
    21    25    26   ar
    22    26    27    1
    23    26    28   ar
    24    10    11    1
    25    12    11    1
    26    12     2    1
    27    12     7    1
    28    21    15   ar
    29    28    23   ar
    30     5    13    1
    31     5    14    1
@<TRIPOS>MOLECULE
*****
 28 31 0 0 0
SMALL
GASTEIGER

@<TRIPOS>ATOM
      1 C          64.9466   85.7726   15.1370 C.3     1  UNL1        0.0122
      2 C          64.0723   86.1562   13.9800 C.3     1  UNL1        0.0568
      3 S          63.3861   85.0936   13.1739 S.3     1  UNL1       -0.0816
      4 C          62.5118   85.4771   12.0170 C.2     1  UNL1        0.1482
      5 N          61.8255   84.4144   11.2109 N.pl3   1  UNL1       -0.3380
      6 N          62.3239   86.9233   11.6661 N.2     1  UNL1       -0.2484
      7 C          63.0102   87.9860   12.4722 C.3     1  UNL1        0.1351
      8 C          62.8222   89.4322   12.1213 C.3     1  UNL1        0.1690
      9 O          63.5085   90.4948   12.9274 O.3     1  UNL1       -0.3494
     10 C          64.3827   90.1112   14.0844 C.3     1  UNL1        0.1406
     11 C          64.5707   88.6651   14.4353 C.3     1  UNL1        0.0374
     12 C          63.8844   87.6025   13.6292 C.3     1  UNL1        0.0402
     13 H          61.9489   83.4652   11.4412 H       1  UNL1        0.1442
     14 H          61.2517   84.6662   10.4515 H       1  UNL1        0.1442
     15 C          62.1359   88.3696   11.3152 C.ar    1  UNL1        0.0278
     16 C          62.5178   87.9682    9.9212 C.ar    1  UNL1        0.0021
     17 C          61.6436   88.3518    8.7643 C.ar    1  UNL1        0.0295
     18 C          60.3875   89.1368    9.0013 C.ar    1  UNL1        0.1424
     19 F          59.5132   89.5204    7.8443 F       1  UNL1       -0.2041
     20 C          60.0057   89.5381   10.3952 C.ar    1  UNL1        0.0590
     21 C          60.8799   89.1545   11.5522 C.ar    1  UNL1        0.1402
     22 F          60.4981   89.5559   12.9461 F       1  UNL1       -0.2044
     23 C          65.0690   91.1740   14.8905 C.ar    1  UNL1        0.0442
     24 C          64.5228   91.8395   16.1188 C.ar    1  UNL1        0.1197
     25 N          65.5382   92.8345   16.5973 N.ar    1  UNL1       -0.1679
     26 N          66.7120   92.7839   15.6647 N.ar    1  UNL1       -0.2476
     27 C          67.9571   93.6139   15.7686 C.3     1  UNL1        0.1537
     28 C          66.4220   91.7576   14.6098 C.ar    1  UNL1        0.0947
@<TRIPOS>BOND
     1     2     1    1
     2     2     3    1
     3     3     4    1
     4     4     5    1
     5     4     6    2
     6     6     7    1
     7     7    15    1
     8    15    16   ar
     9    16    17   ar
    10    17    18   ar
    11    18    19    1
    12    18    20   ar
    13    20    21   ar
    14    21    22    1
    15     7     8    1
    16     8     9    1
    17     9    10    1
    18    10    23    1
    19    23    24   ar
    20    24    25   ar
    21    25    26   ar
    22    26    27    1
    23    26    28   ar
    24    10    11    1
    25    12    11    1
    26    12     2    1
    27    12     7    1
    28    21    15   ar
    29    28    23   ar
    30     5    13    1
    31     5    14    1
