@<TRIPOS>MOLECULE
*****
 26 29 0 0 0
SMALL
GASTEIGER

@<TRIPOS>ATOM
      1 C          65.2919   92.6128   12.4350 C.ar    1  UNL1        0.1535
      2 C          66.0004   92.3061   13.7210 C.ar    1  UNL1        0.1332
      3 N          65.5983   91.1101   14.5321 N.ar    1  UNL1       -0.2393
      4 C          64.4877   90.2208   14.0571 C.ar    1  UNL1        0.1013
      5 C          63.7792   90.5274   12.7711 C.ar    1  UNL1        0.1018
      6 N          64.1812   91.7235   11.9601 N.ar    1  UNL1       -0.2274
      7 C          64.0856   89.0247   14.8683 C.ar    1  UNL1        0.0497
      8 C          64.3832   87.6431   14.3655 C.ar    1  UNL1        0.0245
      9 C          63.9812   86.4471   15.1765 C.ar    1  UNL1        0.0991
     10 N          63.2816   86.6326   16.4904 N.ar    1  UNL1       -0.2400
     11 C          62.9840   88.0142   16.9932 C.ar    1  UNL1        0.1285
     12 C          63.3860   89.2102   16.1820 C.ar    1  UNL1        0.1606
     13 F          63.0885   90.5918   16.6848 F       1  UNL1       -0.2025
     14 C          62.6685   89.6381   12.2962 C.ar    1  UNL1        0.0384
     15 C          62.9758   88.4503   11.4332 C.ar    1  UNL1        0.0047
     16 C          61.8651   87.5610   10.9583 C.ar    1  UNL1        0.0207
     17 C          60.4473   87.8594   11.3462 C.ar    1  UNL1        0.0989
     18 N          60.1401   89.0472   12.2092 N.ar    1  UNL1       -0.2423
     19 C          61.2507   89.9366   12.6841 C.ar    1  UNL1        0.1004
     20 O          67.2044   92.2983   10.1452 O.2     1  UNL1       -0.2747
     21 C          66.6502   93.6516   10.4790 C.2     1  UNL1        0.2267
     22 N          65.6939   93.8089   11.6239 N.am    1  UNL1       -0.2681
     23 H          65.3302   94.6971   11.8430 H       1  UNL1        0.1563
     24 C          67.0522   94.8477    9.6679 C.3     1  UNL1        0.0769
     25 C          67.2303   96.3317    9.5422 C.3     1  UNL1        0.0096
     26 C          67.5706   95.4352    8.3888 C.3     1  UNL1        0.0096
@<TRIPOS>BOND
     1    20    21    2
     2    21    22   am
     3    22     1    1
     4     1     2   ar
     5     2     3   ar
     6     3     4   ar
     7     4     7    1
     8     7     8   ar
     9     8     9   ar
    10     9    10   ar
    11    10    11   ar
    12    11    12   ar
    13    12    13    1
    14     4     5   ar
    15     5    14    1
    16    14    15   ar
    17    15    16   ar
    18    16    17   ar
    19    17    18   ar
    20    18    19   ar
    21     5     6   ar
    22    21    24    1
    23    24    25    1
    24    25    26    1
    25     6     1   ar
    26    26    24    1
    27    12     7   ar
    28    19    14   ar
    29    22    23    1
@<TRIPOS>MOLECULE
*****
 26 29 0 0 0
SMALL
GASTEIGER

@<TRIPOS>ATOM
      1 C          62.3949   90.6918   10.6943 C.ar    1  UNL1        0.1535
      2 C          62.3465   90.3603   12.1564 C.ar    1  UNL1        0.1332
      3 N          63.4243   90.8564   13.0740 N.ar    1  UNL1       -0.2393
      4 C          64.5506   91.6841   12.5295 C.ar    1  UNL1        0.1013
      5 C          64.5990   92.0157   11.0675 C.ar    1  UNL1        0.1018
      6 N          63.5212   91.5195   10.1499 N.ar    1  UNL1       -0.2274
      7 C          65.6284   92.1803   13.4472 C.ar    1  UNL1        0.0497
      8 C          66.0902   93.6048   13.3605 C.ar    1  UNL1        0.0245
      9 C          67.1680   94.1010   14.2782 C.ar    1  UNL1        0.0991
     10 N          67.7841   93.1727   15.2825 N.ar    1  UNL1       -0.2400
     11 C          67.3223   91.7482   15.3692 C.ar    1  UNL1        0.1285
     12 C          66.2445   91.2520   14.4515 C.ar    1  UNL1        0.1606
     13 F          65.7827   89.8275   14.5382 F       1  UNL1       -0.2025
     14 C          65.7252   92.8434   10.5230 C.ar    1  UNL1        0.0384
     15 C          67.0267   92.1924   10.1591 C.ar    1  UNL1        0.0047
     16 C          68.1529   93.0201    9.6147 C.ar    1  UNL1        0.0207
     17 C          67.9778   94.4988    9.4341 C.ar    1  UNL1        0.0989
     18 N          66.6763   95.1498    9.7979 N.ar    1  UNL1       -0.2423
     19 C          65.5501   94.3221   10.3424 C.ar    1  UNL1        0.1004
     20 O          62.1860   87.7648   10.0702 O.2     1  UNL1       -0.2747
     21 C          61.2126   88.7322    9.4646 C.2     1  UNL1        0.2267
     22 N          61.3170   90.1956    9.7766 N.am    1  UNL1       -0.2681
     23 H          60.6782   90.8305    9.3791 H       1  UNL1        0.1563
     24 C          60.1347   88.2360    8.5469 C.3     1  UNL1        0.0769
     25 C          59.1993   88.4671    7.3974 C.3     1  UNL1        0.0096
     26 C          59.2033   87.1456    8.1070 C.3     1  UNL1        0.0096
@<TRIPOS>BOND
     1    20    21    2
     2    21    22   am
     3    22     1    1
     4     1     2   ar
     5     2     3   ar
     6     3     4   ar
     7     4     7    1
     8     7     8   ar
     9     8     9   ar
    10     9    10   ar
    11    10    11   ar
    12    11    12   ar
    13    12    13    1
    14     4     5   ar
    15     5    14    1
    16    14    15   ar
    17    15    16   ar
    18    16    17   ar
    19    17    18   ar
    20    18    19   ar
    21     5     6   ar
    22    21    24    1
    23    24    25    1
    24    25    26    1
    25     6     1   ar
    26    26    24    1
    27    12     7   ar
    28    19    14   ar
    29    22    23    1
@<TRIPOS>MOLECULE
*****
 26 29 0 0 0
SMALL
GASTEIGER

@<TRIPOS>ATOM
      1 C          62.9843   90.8722   10.9393 C.ar    1  UNL1        0.1535
      2 C          63.2415   90.2463   12.2779 C.ar    1  UNL1        0.1332
      3 N          64.4031   90.7041   13.1091 N.ar    1  UNL1       -0.2393
      4 C          65.3075   91.7879   12.6017 C.ar    1  UNL1        0.1013
      5 C          65.0504   92.4138   11.2631 C.ar    1  UNL1        0.1018
      6 N          63.8888   91.9560   10.4319 N.ar    1  UNL1       -0.2274
      7 C          66.4692   92.2457   13.4331 C.ar    1  UNL1        0.0497
      8 C          66.2313   93.0589   14.6709 C.ar    1  UNL1        0.0245
      9 C          67.3929   93.5168   15.5022 C.ar    1  UNL1        0.0991
     10 N          68.7924   93.1614   15.0957 N.ar    1  UNL1       -0.2400
     11 C          69.0303   92.3483   13.8579 C.ar    1  UNL1        0.1285
     12 C          67.8686   91.8904   13.0266 C.ar    1  UNL1        0.1606
     13 F          68.1065   91.0772   11.7888 F       1  UNL1       -0.2025
     14 C          65.9548   93.4976   10.7557 C.ar    1  UNL1        0.0384
     15 C          65.7149   94.9232   11.1559 C.ar    1  UNL1        0.0047
     16 C          66.6193   96.0070   10.6485 C.ar    1  UNL1        0.0207
     17 C          67.7636   95.6652    9.7409 C.ar    1  UNL1        0.0989
     18 N          68.0034   94.2397    9.3407 N.ar    1  UNL1       -0.2423
     19 C          67.0990   93.1559    9.8481 C.ar    1  UNL1        0.1004
     20 O          62.6712   87.9642   10.2716 O.2     1  UNL1       -0.2747
     21 C          61.6662   88.9604    9.7741 C.2     1  UNL1        0.2267
     22 N          61.8227   90.4144   10.1079 N.am    1  UNL1       -0.2681
     23 H          61.1630   91.0682    9.7814 H       1  UNL1        0.1563
     24 C          60.5045   88.5026    8.9428 C.3     1  UNL1        0.0769
     25 C          59.4469   87.4836    8.6379 C.3     1  UNL1        0.0096
     26 C          59.5502   88.7286    7.8078 C.3     1  UNL1        0.0096
@<TRIPOS>BOND
     1    20    21    2
     2    21    22   am
     3    22     1    1
     4     1     2   ar
     5     2     3   ar
     6     3     4   ar
     7     4     7    1
     8     7     8   ar
     9     8     9   ar
    10     9    10   ar
    11    10    11   ar
    12    11    12   ar
    13    12    13    1
    14     4     5   ar
    15     5    14    1
    16    14    15   ar
    17    15    16   ar
    18    16    17   ar
    19    17    18   ar
    20    18    19   ar
    21     5     6   ar
    22    21    24    1
    23    24    25    1
    24    25    26    1
    25     6     1   ar
    26    26    24    1
    27    12     7   ar
    28    19    14   ar
    29    22    23    1
@<TRIPOS>MOLECULE
*****
 26 29 0 0 0
SMALL
GASTEIGER

@<TRIPOS>ATOM
      1 C          64.3225   89.6784   14.1073 C.ar    1  UNL1        0.1535
      2 C          63.6857   90.1230   12.8241 C.ar    1  UNL1        0.1332
      3 N          64.2658   91.2753   12.0589 N.ar    1  UNL1       -0.2393
      4 C          65.4827   91.9831   12.5769 C.ar    1  UNL1        0.1013
      5 C          66.1195   91.5384   13.8601 C.ar    1  UNL1        0.1018
      6 N          65.5394   90.3861   14.6253 N.ar    1  UNL1       -0.2274
      7 C          66.0627   93.1355   11.8116 C.ar    1  UNL1        0.0497
      8 C          65.8265   94.5410   12.2791 C.ar    1  UNL1        0.0245
      9 C          66.4065   95.6934   11.5139 C.ar    1  UNL1        0.0991
     10 N          67.2228   95.4402   10.2811 N.ar    1  UNL1       -0.2400
     11 C          67.4590   94.0346    9.8136 C.ar    1  UNL1        0.1285
     12 C          66.8789   92.8822   10.5789 C.ar    1  UNL1        0.1606
     13 F          67.1151   91.4767   10.1114 F       1  UNL1       -0.2025
     14 C          67.3364   92.2461   14.3782 C.ar    1  UNL1        0.0384
     15 C          67.2051   93.2543   15.4810 C.ar    1  UNL1        0.0047
     16 C          68.4219   93.9620   15.9990 C.ar    1  UNL1        0.0207
     17 C          69.7701   93.6616   15.4142 C.ar    1  UNL1        0.0989
     18 N          69.9014   92.6534   14.3114 N.ar    1  UNL1       -0.2423
     19 C          68.6846   91.9457   13.7934 C.ar    1  UNL1        0.1004
     20 O          63.4363   90.0584   16.9481 O.2     1  UNL1       -0.2747
     21 C          63.2994   88.7160   16.2930 C.2     1  UNL1        0.2267
     22 N          63.7425   88.5260   14.8726 N.am    1  UNL1       -0.2681
     23 H          63.6526   87.6449   14.4426 H       1  UNL1        0.1563
     24 C          62.7193   87.5636   17.0583 C.3     1  UNL1        0.0769
     25 C          61.7800   86.3967   17.1353 C.3     1  UNL1        0.0096
     26 C          62.6539   86.7346   18.3066 C.3     1  UNL1        0.0096
@<TRIPOS>BOND
     1    20    21    2
     2    21    22   am
     3    22     1    1
     4     1     2   ar
     5     2     3   ar
     6     3     4   ar
     7     4     7    1
     8     7     8   ar
     9     8     9   ar
    10     9    10   ar
    11    10    11   ar
    12    11    12   ar
    13    12    13    1
    14     4     5   ar
    15     5    14    1
    16    14    15   ar
    17    15    16   ar
    18    16    17   ar
    19    17    18   ar
    20    18    19   ar
    21     5     6   ar
    22    21    24    1
    23    24    25    1
    24    25    26    1
    25     6     1   ar
    26    26    24    1
    27    12     7   ar
    28    19    14   ar
    29    22    23    1
@<TRIPOS>MOLECULE
*****
 26 29 0 0 0
SMALL
GASTEIGER

@<TRIPOS>ATOM
      1 C          62.6964   90.6624   12.2507 C.ar    1  UNL1        0.1535
      2 C          62.7862   90.9050   10.7732 C.ar    1  UNL1        0.1332
      3 N          63.9758   91.6175   10.2012 N.ar    1  UNL1       -0.2393
      4 C          65.0756   92.0873   11.1067 C.ar    1  UNL1        0.1013
      5 C          64.9857   91.8446   12.5842 C.ar    1  UNL1        0.1018
      6 N          63.7961   91.1322   13.1562 N.ar    1  UNL1       -0.2274
      7 C          66.2652   92.7998   10.5347 C.ar    1  UNL1        0.0497
      8 C          67.5225   92.0387   10.2349 C.ar    1  UNL1        0.0245
      9 C          68.7121   92.7511    9.6629 C.ar    1  UNL1        0.0991
     10 N          68.6445   94.2247    9.3906 N.ar    1  UNL1       -0.2400
     11 C          67.3871   94.9858    9.6904 C.ar    1  UNL1        0.1285
     12 C          66.1975   94.2733   10.2624 C.ar    1  UNL1        0.1606
     13 F          64.9402   95.0344   10.5622 F       1  UNL1       -0.2025
     14 C          66.0854   92.3144   13.4897 C.ar    1  UNL1        0.0384
     15 C          66.9136   91.3168   14.2439 C.ar    1  UNL1        0.0047
     16 C          68.0133   91.7866   15.1494 C.ar    1  UNL1        0.0207
     17 C          68.2848   93.2540   15.3007 C.ar    1  UNL1        0.0989
     18 N          67.4566   94.2516   14.5465 N.ar    1  UNL1       -0.2423
     19 C          66.3569   93.7818   13.6410 C.ar    1  UNL1        0.1004
     20 O          60.0474   90.8019   10.8493 O.2     1  UNL1       -0.2747
     21 C          60.1823   90.0197   12.1221 C.2     1  UNL1        0.2267
     22 N          61.5067   89.9499   12.8228 N.am    1  UNL1       -0.2681
     23 H          61.5952   89.4365   13.6581 H       1  UNL1        0.1563
     24 C          58.9926   89.3072   12.6942 C.3     1  UNL1        0.0769
     25 C          58.3394   88.5729   13.8272 C.3     1  UNL1        0.0096
     26 C          57.5855   88.8075   12.5519 C.3     1  UNL1        0.0096
@<TRIPOS>BOND
     1    20    21    2
     2    21    22   am
     3    22     1    1
     4     1     2   ar
     5     2     3   ar
     6     3     4   ar
     7     4     7    1
     8     7     8   ar
     9     8     9   ar
    10     9    10   ar
    11    10    11   ar
    12    11    12   ar
    13    12    13    1
    14     4     5   ar
    15     5    14    1
    16    14    15   ar
    17    15    16   ar
    18    16    17   ar
    19    17    18   ar
    20    18    19   ar
    21     5     6   ar
    22    21    24    1
    23    24    25    1
    24    25    26    1
    25     6     1   ar
    26    26    24    1
    27    12     7   ar
    28    19    14   ar
    29    22    23    1
@<TRIPOS>MOLECULE
*****
 26 29 0 0 0
SMALL
GASTEIGER

@<TRIPOS>ATOM
      1 C          62.6960   90.6898   10.4823 C.ar    1  UNL1        0.1535
      2 C          63.6880   91.7998   10.2980 C.ar    1  UNL1        0.1332
      3 N          64.6364   92.1496   11.4062 N.ar    1  UNL1       -0.2393
      4 C          64.5929   91.3894   12.6986 C.ar    1  UNL1        0.1013
      5 C          63.6009   90.2795   12.8829 C.ar    1  UNL1        0.1018
      6 N          62.6525   89.9297   11.7747 N.ar    1  UNL1       -0.2274
      7 C          65.5414   91.7393   13.8067 C.ar    1  UNL1        0.0497
      8 C          65.0171   92.0054   15.1867 C.ar    1  UNL1        0.0245
      9 C          65.9656   92.3553   16.2948 C.ar    1  UNL1        0.0991
     10 N          67.4384   92.4390   16.0231 N.ar    1  UNL1       -0.2400
     11 C          67.9627   92.1729   14.6431 C.ar    1  UNL1        0.1285
     12 C          67.0142   91.8230   13.5349 C.ar    1  UNL1        0.1606
     13 F          67.5385   91.5569   12.1550 F       1  UNL1       -0.2025
     14 C          63.5574   89.5194   14.1753 C.ar    1  UNL1        0.0384
     15 C          64.2684   88.2042   14.2961 C.ar    1  UNL1        0.0047
     16 C          64.2249   87.4440   15.5885 C.ar    1  UNL1        0.0207
     17 C          63.4704   87.9991   16.7601 C.ar    1  UNL1        0.0989
     18 N          62.7595   89.3144   16.6392 N.ar    1  UNL1       -0.2423
     19 C          62.8030   90.0745   15.3468 C.ar    1  UNL1        0.1004
     20 O          61.2183   88.0796   10.5407 O.2     1  UNL1       -0.2747
     21 C          61.0086   89.0349    9.4033 C.2     1  UNL1        0.2267
     22 N          61.7475   90.3400    9.3741 N.am    1  UNL1       -0.2681
     23 H          61.6099   90.9669    8.6277 H       1  UNL1        0.1563
     24 C          60.0601   88.6850    8.2952 C.3     1  UNL1        0.0769
     25 C          59.1245   87.7089    7.6458 C.3     1  UNL1        0.0096
     26 C          59.3529   89.0552    7.0252 C.3     1  UNL1        0.0096
@<TRIPOS>BOND
     1    20    21    2
     2    21    22   am
     3    22     1    1
     4     1     2   ar
     5     2     3   ar
     6     3     4   ar
     7     4     7    1
     8     7     8   ar
     9     8     9   ar
    10     9    10   ar
    11    10    11   ar
    12    11    12   ar
    13    12    13    1
    14     4     5   ar
    15     5    14    1
    16    14    15   ar
    17    15    16   ar
    18    16    17   ar
    19    17    18   ar
    20    18    19   ar
    21     5     6   ar
    22    21    24    1
    23    24    25    1
    24    25    26    1
    25     6     1   ar
    26    26    24    1
    27    12     7   ar
    28    19    14   ar
    29    22    23    1
@<TRIPOS>MOLECULE
*****
 26 29 0 0 0
SMALL
GASTEIGER

@<TRIPOS>ATOM
      1 C          63.1626   89.9741   12.4839 C.ar    1  UNL1        0.1535
      2 C          63.6449   89.5308   13.8333 C.ar    1  UNL1        0.1332
      3 N          64.8473   90.1811   14.4508 N.ar    1  UNL1       -0.2393
      4 C          65.5674   91.2746   13.7189 C.ar    1  UNL1        0.1013
      5 C          65.0851   91.7179   12.3696 C.ar    1  UNL1        0.1018
      6 N          63.8827   91.0676   11.7520 N.ar    1  UNL1       -0.2274
      7 C          66.7698   91.9250   14.3365 C.ar    1  UNL1        0.0497
      8 C          68.1119   91.7981   13.6787 C.ar    1  UNL1        0.0245
      9 C          69.3143   92.4484   14.2962 C.ar    1  UNL1        0.0991
     10 N          69.1746   93.2255   15.5716 N.ar    1  UNL1       -0.2400
     11 C          67.8325   93.3523   16.2295 C.ar    1  UNL1        0.1285
     12 C          66.6301   92.7020   15.6119 C.ar    1  UNL1        0.1606
     13 F          65.2880   92.8288   16.2697 F       1  UNL1       -0.2025
     14 C          65.8051   92.8115   11.6377 C.ar    1  UNL1        0.0384
     15 C          65.6389   94.2384   12.0691 C.ar    1  UNL1        0.0047
     16 C          66.3589   95.3320   11.3372 C.ar    1  UNL1        0.0207
     17 C          67.2453   94.9986   10.1740 C.ar    1  UNL1        0.0989
     18 N          67.4116   93.5716    9.7426 N.ar    1  UNL1       -0.2423
     19 C          66.6915   92.4781   10.4744 C.ar    1  UNL1        0.1004
     20 O          63.0889   89.4554    9.5300 O.2     1  UNL1       -0.2747
     21 C          61.9234   89.0645   10.3894 C.2     1  UNL1        0.2267
     22 N          61.9602   89.3237   11.8663 N.am    1  UNL1       -0.2681
     23 H          61.1952   89.0671   12.4304 H       1  UNL1        0.1563
     24 C          60.7209   88.4142    9.7718 C.3     1  UNL1        0.0769
     25 C          59.5677   88.4600    8.8138 C.3     1  UNL1        0.0096
     26 C          59.7916   87.2420    9.6602 C.3     1  UNL1        0.0096
@<TRIPOS>BOND
     1    20    21    2
     2    21    22   am
     3    22     1    1
     4     1     2   ar
     5     2     3   ar
     6     3     4   ar
     7     4     7    1
     8     7     8   ar
     9     8     9   ar
    10     9    10   ar
    11    10    11   ar
    12    11    12   ar
    13    12    13    1
    14     4     5   ar
    15     5    14    1
    16    14    15   ar
    17    15    16   ar
    18    16    17   ar
    19    17    18   ar
    20    18    19   ar
    21     5     6   ar
    22    21    24    1
    23    24    25    1
    24    25    26    1
    25     6     1   ar
    26    26    24    1
    27    12     7   ar
    28    19    14   ar
    29    22    23    1
@<TRIPOS>MOLECULE
*****
 26 29 0 0 0
SMALL
GASTEIGER

@<TRIPOS>ATOM
      1 C          63.5162   89.0194   12.9767 C.ar    1  UNL1        0.1535
      2 C          62.9427   89.7715   11.8126 C.ar    1  UNL1        0.1332
      3 N          62.3674   89.0236   10.6466 N.ar    1  UNL1       -0.2393
      4 C          62.3657   87.5236   10.6447 C.ar    1  UNL1        0.1013
      5 C          62.9393   86.7715   11.8088 C.ar    1  UNL1        0.1018
      6 N          63.5145   87.5194   12.9749 N.ar    1  UNL1       -0.2274
      7 C          61.7904   86.7757    9.4785 C.ar    1  UNL1        0.0497
      8 C          62.6891   85.9729    8.5853 C.ar    1  UNL1        0.0245
      9 C          62.1138   85.2251    7.4193 C.ar    1  UNL1        0.0991
     10 N          60.6398   85.2800    7.1464 N.ar    1  UNL1       -0.2400
     11 C          59.7412   86.0828    8.0396 C.ar    1  UNL1        0.1285
     12 C          60.3165   86.8307    9.2057 C.ar    1  UNL1        0.1606
     13 F          59.4178   87.6336   10.0989 F       1  UNL1       -0.2025
     14 C          62.9376   85.2715   11.8069 C.ar    1  UNL1        0.0384
     15 C          63.5023   84.5224   10.6366 C.ar    1  UNL1        0.0047
     16 C          63.5006   83.0224   10.6347 C.ar    1  UNL1        0.0207
     17 C          62.9342   82.2715   11.8032 C.ar    1  UNL1        0.0989
     18 N          62.3695   83.0207   12.9735 N.ar    1  UNL1       -0.2423
     19 C          62.3712   84.5207   12.9754 C.ar    1  UNL1        0.1004
     20 O          65.0903   91.5318   12.5185 O.2     1  UNL1       -0.2747
     21 C          64.8786   91.0235   13.9137 C.2     1  UNL1        0.2267
     22 N          64.0915   89.7673   14.1429 N.am    1  UNL1       -0.2681
     23 H          63.9526   89.4336   15.0586 H       1  UNL1        0.1563
     24 C          65.4539   91.7714   15.0798 C.3     1  UNL1        0.0769
     25 C          66.5902   92.5213   15.7092 C.3     1  UNL1        0.0096
     26 C          65.3139   92.3167   16.4701 C.3     1  UNL1        0.0096
@<TRIPOS>BOND
     1    20    21    2
     2    21    22   am
     3    22     1    1
     4     1     2   ar
     5     2     3   ar
     6     3     4   ar
     7     4     7    1
     8     7     8   ar
     9     8     9   ar
    10     9    10   ar
    11    10    11   ar
    12    11    12   ar
    13    12    13    1
    14     4     5   ar
    15     5    14    1
    16    14    15   ar
    17    15    16   ar
    18    16    17   ar
    19    17    18   ar
    20    18    19   ar
    21     5     6   ar
    22    21    24    1
    23    24    25    1
    24    25    26    1
    25     6     1   ar
    26    26    24    1
    27    12     7   ar
    28    19    14   ar
    29    22    23    1
@<TRIPOS>MOLECULE
*****
 26 29 0 0 0
SMALL
GASTEIGER

@<TRIPOS>ATOM
      1 C          64.2848   87.8943   14.1636 C.ar    1  UNL1        0.1535
      2 C          64.7298   86.6696   14.9065 C.ar    1  UNL1        0.1332
      3 N          64.3999   85.3073   14.3724 N.ar    1  UNL1       -0.2393
      4 C          63.6251   85.1698   13.0954 C.ar    1  UNL1        0.1013
      5 C          63.1801   86.3945   12.3526 C.ar    1  UNL1        0.1018
      6 N          63.5099   87.7568   12.8867 N.ar    1  UNL1       -0.2274
      7 C          63.2952   83.8074   12.5613 C.ar    1  UNL1        0.0497
      8 C          63.8839   83.3492   11.2600 C.ar    1  UNL1        0.0245
      9 C          63.5541   81.9869   10.7259 C.ar    1  UNL1        0.0991
     10 N          62.6355   81.0827   11.4932 N.ar    1  UNL1       -0.2400
     11 C          62.0467   81.5409   12.7945 C.ar    1  UNL1        0.1285
     12 C          62.3766   82.9033   13.3286 C.ar    1  UNL1        0.1606
     13 F          61.7878   83.3614   14.6299 F       1  UNL1       -0.2025
     14 C          62.4052   86.2570   11.0756 C.ar    1  UNL1        0.0384
     15 C          63.0663   85.6898    9.8545 C.ar    1  UNL1        0.0047
     16 C          62.2914   85.5523    8.5775 C.ar    1  UNL1        0.0207
     17 C          60.8554   85.9819    8.5217 C.ar    1  UNL1        0.0989
     18 N          60.1942   86.5491    9.7428 N.ar    1  UNL1       -0.2423
     19 C          60.9691   86.6867   11.0198 C.ar    1  UNL1        0.1004
     20 O          62.4680   89.2033   16.1601 O.2     1  UNL1       -0.2747
     21 C          63.7063   89.9111   15.6959 C.2     1  UNL1        0.2267
     22 N          64.6147   89.2567   14.6977 N.am    1  UNL1       -0.2681
     23 H          65.4275   89.7214   14.3931 H       1  UNL1        0.1563
     24 C          64.0362   91.2735   16.2300 C.3     1  UNL1        0.0769
     25 C          65.0410   92.3527   16.5051 C.3     1  UNL1        0.0096
     26 C          63.6027   92.5540   16.8800 C.3     1  UNL1        0.0096
@<TRIPOS>BOND
     1    20    21    2
     2    21    22   am
     3    22     1    1
     4     1     2   ar
     5     2     3   ar
     6     3     4   ar
     7     4     7    1
     8     7     8   ar
     9     8     9   ar
    10     9    10   ar
    11    10    11   ar
    12    11    12   ar
    13    12    13    1
    14     4     5   ar
    15     5    14    1
    16    14    15   ar
    17    15    16   ar
    18    16    17   ar
    19    17    18   ar
    20    18    19   ar
    21     5     6   ar
    22    21    24    1
    23    24    25    1
    24    25    26    1
    25     6     1   ar
    26    26    24    1
    27    12     7   ar
    28    19    14   ar
    29    22    23    1
