@<TRIPOS>MOLECULE
*****
 52 56 0 0 0
SMALL
GASTEIGER

@<TRIPOS>ATOM
      1 N          62.6633   85.2737    9.6374 N.am    1  UNL1       -0.2770
      2 C          61.6443   86.2158   10.2067 C.2     1  UNL1        0.2270
      3 O          61.6170   86.4895   11.6813 O.2     1  UNL1       -0.2748
      4 C          60.6525   86.8843    9.3014 C.3     1  UNL1        0.0964
      5 C          59.7676   86.0567    8.4171 C.3     1  UNL1        0.0780
      6 N          58.7758   86.7251    7.5118 N.3     1  UNL1       -0.2970
      7 C          58.6689   88.2211    7.4908 C.3     1  UNL1        0.0689
      8 C          59.5539   89.0488    8.3751 C.3     1  UNL1        0.0220
      9 C          60.5457   88.3804    9.2804 C.3     1  UNL1        0.0337
     10 H          57.8555   86.3678    7.7683 H       1  UNL1        0.1233
     11 C          61.4306   89.2079   10.1647 C.ar    1  UNL1       -0.0217
     12 C          61.0478   89.4483   11.5951 C.ar    1  UNL1       -0.0012
     13 C          61.9328   90.2758   12.4793 C.ar    1  UNL1        0.0366
     14 C          63.2004   90.8631   11.9333 C.ar    1  UNL1        0.1387
     15 C          63.5832   90.6228   10.5031 C.ar    1  UNL1        0.0366
     16 C          62.6982   89.7952    9.6187 C.ar    1  UNL1       -0.0012
     17 O          64.0854   91.6907   12.8176 O.3     1  UNL1       -0.4714
     18 C          65.0837   92.6314   12.2105 C.3     1  UNL1        0.2525
     19 C          66.5520   92.3567   12.3462 C.3     1  UNL1        0.2525
     20 O          67.5515   93.3583   11.8484 O.3     1  UNL1       -0.4697
     21 C          67.2173   94.2325   10.6762 C.ar    1  UNL1        0.1596
     22 C          66.5460   95.5559   10.8948 C.ar    1  UNL1        0.0921
     23 CL         66.2088   96.0052   12.2856 Cl      1  UNL1       -0.0791
     24 C          66.2117   96.4301    9.7225 C.ar    1  UNL1        0.0103
     25 C          66.5489   95.9808    8.3316 C.ar    1  UNL1       -0.0200
     26 C          66.2147   96.8549    7.1594 C.3     1  UNL1        0.0311
     27 C          67.2203   94.6573    8.1131 C.ar    1  UNL1        0.0103
     28 C          67.5545   93.7832    9.2853 C.ar    1  UNL1        0.0921
     29 CL         68.2258   92.4597    9.0668 Cl      1  UNL1       -0.0791
     30 C          62.6905   85.0001    8.1628 C.3     1  UNL1        0.0758
     31 C          61.9822   84.6001    6.9026 C.3     1  UNL1        0.0215
     32 C          63.4459   84.9262    6.8691 C.3     1  UNL1        0.0215
     33 C          63.6551   84.6053   10.5427 C.3     1  UNL1        0.1201
     34 C          62.0829   82.4694   13.4950 C.ar    1  UNL1       -0.0194
     35 C          62.4938   82.8953   12.1167 C.ar    1  UNL1       -0.0067
     36 C          63.2442   84.1793   11.9210 C.ar    1  UNL1        0.0004
     37 C          63.5836   85.0374   13.1036 C.ar    1  UNL1        0.0343
     38 C          63.1727   84.6114   14.4819 C.ar    1  UNL1        0.1380
     39 C          62.4223   83.3274   14.6776 C.ar    1  UNL1        0.0326
     40 O          63.5121   85.4695   15.6645 O.3     1  UNL1       -0.4751
     41 C          64.3149   86.7225   15.4763 C.3     1  UNL1        0.2103
     42 C          63.6841   88.0613   15.7209 C.3     1  UNL1        0.0724
     43 C          63.0566   87.5359   16.9779 C.3     1  UNL1        0.0093
     44 C          64.3116   88.5867   14.4639 C.3     1  UNL1        0.0093
     45 C          63.0532   89.4000   15.9655 C.2     1  UNL1        0.0532
     46 O          61.5593   89.5300   15.9999 O.co2   1  UNL1       -0.5491
     47 O          63.9163   90.6086   16.1758 O.co2   1  UNL1       -0.5491
     48 C          61.3325   81.1854   13.6907 C.3     1  UNL1        0.0290
     49 C          61.9678   79.8803   13.3125 C.3     1  UNL1        0.0367
     50 C          62.9397   79.8221   12.1714 C.3     1  UNL1        0.1426
     51 C          62.6963   79.3798    9.6228 C.3     1  UNL1        0.1741
     52 O          62.7052   78.8723   11.0343 O.3     1  UNL1       -0.3511
@<TRIPOS>UNITY_ATOM_ATTR
46 1
charge -1
@<TRIPOS>BOND
     1    51    52    1
     2    52    50    1
     3    50    49    1
     4    49    48    1
     5    48    34    1
     6    34    35   ar
     7    35    36   ar
     8    36    33    1
     9    33     1    1
    10     1     2   am
    11     2     3    2
    12     4     2    1
    13     4     5    1
    14     5     6    1
    15     6     7    1
    16     7     8    1
    17     8     9    1
    18     9    11    1
    19    11    12   ar
    20    12    13   ar
    21    13    14   ar
    22    14    17    1
    23    17    18    1
    24    18    19    1
    25    19    20    1
    26    20    21    1
    27    21    22   ar
    28    22    23    1
    29    22    24   ar
    30    24    25   ar
    31    25    26    1
    32    25    27   ar
    33    27    28   ar
    34    28    29    1
    35    14    15   ar
    36    15    16   ar
    37     1    30    1
    38    30    31    1
    39    31    32    1
    40    36    37   ar
    41    37    38   ar
    42    38    40    1
    43    40    41    1
    44    41    42    1
    45    42    43    1
    46    42    44    1
    47    42    45    1
    48    45    46   ar
    49    45    47   ar
    50    38    39   ar
    51    39    34   ar
    52     9     4    1
    53    16    11   ar
    54    32    30    1
    55    28    21   ar
    56     6    10    1
@<TRIPOS>MOLECULE
*****
 52 56 0 0 0
SMALL
GASTEIGER

@<TRIPOS>ATOM
      1 N          61.6917   89.4032   11.8983 N.am    1  UNL1       -0.2770
      2 C          62.1598   88.8776   10.5737 C.2     1  UNL1        0.2270
      3 O          63.5913   88.4677   10.3929 O.2     1  UNL1       -0.2748
      4 C          61.1964   88.7619    9.4298 C.3     1  UNL1        0.0964
      5 C          60.4185   89.9630    8.9800 C.3     1  UNL1        0.0780
      6 N          59.4551   89.8473    7.8362 N.3     1  UNL1       -0.2970
      7 C          59.2695   88.5306    7.1421 C.3     1  UNL1        0.0689
      8 C          60.0474   87.3294    7.5919 C.3     1  UNL1        0.0220
      9 C          61.0109   87.4451    8.7358 C.3     1  UNL1        0.0337
     10 H          59.7592   90.5139    7.1265 H       1  UNL1        0.1233
     11 C          61.7887   86.2441    9.1856 C.ar    1  UNL1       -0.0217
     12 C          62.7635   85.5891    8.2522 C.ar    1  UNL1       -0.0012
     13 C          63.5413   84.3881    8.7020 C.ar    1  UNL1        0.0366
     14 C          63.3445   83.8419   10.0851 C.ar    1  UNL1        0.1387
     15 C          62.3698   84.4968   11.0184 C.ar    1  UNL1        0.0366
     16 C          61.5919   85.6979   10.5686 C.ar    1  UNL1       -0.0012
     17 O          64.1224   82.6409   10.5349 O.3     1  UNL1       -0.4714
     18 C          63.4876   81.6355   11.4496 C.3     1  UNL1        0.2525
     19 C          63.7213   81.7150   12.9291 C.3     1  UNL1        0.2525
     20 O          64.5875   82.8013   13.4943 O.3     1  UNL1       -0.4697
     21 C          64.0278   83.7569   14.5060 C.ar    1  UNL1        0.1596
     22 C          64.8640   84.8993   15.0016 C.ar    1  UNL1        0.0921
     23 CL         66.2599   85.0862   14.4854 Cl      1  UNL1       -0.0791
     24 C          64.3042   85.8549   16.0133 C.ar    1  UNL1        0.0103
     25 C          62.9083   85.6680   16.5295 C.ar    1  UNL1       -0.0200
     26 C          62.3485   86.6236   17.5411 C.3     1  UNL1        0.0311
     27 C          62.0721   84.5255   16.0339 C.ar    1  UNL1        0.0103
     28 C          62.6318   83.5700   15.0222 C.ar    1  UNL1        0.0921
     29 CL         61.7956   82.4275   14.5266 Cl      1  UNL1       -0.0791
     30 C          60.2602   89.8132   12.0791 C.3     1  UNL1        0.0758
     31 C          58.8783   89.5187   12.5827 C.3     1  UNL1        0.0215
     32 C          59.1627   90.8177   11.8886 C.3     1  UNL1        0.0215
     33 C          62.6552   89.5189   13.0422 C.3     1  UNL1        0.1201
     34 C          65.5043   91.9774   14.3025 C.ar    1  UNL1       -0.0194
     35 C          64.4805   90.8812   14.2922 C.ar    1  UNL1       -0.0067
     36 C          63.6790   90.6152   13.0525 C.ar    1  UNL1        0.0004
     37 C          63.9013   91.4454   11.8231 C.ar    1  UNL1        0.0343
     38 C          64.9251   92.5416   11.8335 C.ar    1  UNL1        0.1380
     39 C          65.7266   92.8076   13.0732 C.ar    1  UNL1        0.0326
     40 O          65.1474   93.3719   10.6041 O.3     1  UNL1       -0.4751
     41 C          65.9113   94.6594   10.6967 C.3     1  UNL1        0.2103
     42 C          66.0819   95.5195    9.4796 C.3     1  UNL1        0.0724
     43 C          65.0585   96.4775   10.0132 C.3     1  UNL1        0.0093
     44 C          67.1053   94.5614    8.9460 C.3     1  UNL1        0.0093
     45 C          66.2525   96.3795    8.2626 C.2     1  UNL1        0.0532
     46 O          67.6201   96.8450    7.8589 O.co2   1  UNL1       -0.5491
     47 O          65.0555   96.7740    7.4492 O.co2   1  UNL1       -0.5491
     48 C          66.3058   92.2434   15.5422 C.3     1  UNL1        0.0290
     49 C          67.7371   91.8012   15.6192 C.3     1  UNL1        0.0367
     50 C          68.8303   92.7134   15.1472 C.3     1  UNL1        0.1426
     51 C          68.9729   91.6361   12.7873 C.3     1  UNL1        0.1741
     52 O          69.6273   92.3600   13.9265 O.3     1  UNL1       -0.3511
@<TRIPOS>UNITY_ATOM_ATTR
46 1
charge -1
@<TRIPOS>BOND
     1    51    52    1
     2    52    50    1
     3    50    49    1
     4    49    48    1
     5    48    34    1
     6    34    35   ar
     7    35    36   ar
     8    36    33    1
     9    33     1    1
    10     1     2   am
    11     2     3    2
    12     4     2    1
    13     4     5    1
    14     5     6    1
    15     6     7    1
    16     7     8    1
    17     8     9    1
    18     9    11    1
    19    11    12   ar
    20    12    13   ar
    21    13    14   ar
    22    14    17    1
    23    17    18    1
    24    18    19    1
    25    19    20    1
    26    20    21    1
    27    21    22   ar
    28    22    23    1
    29    22    24   ar
    30    24    25   ar
    31    25    26    1
    32    25    27   ar
    33    27    28   ar
    34    28    29    1
    35    14    15   ar
    36    15    16   ar
    37     1    30    1
    38    30    31    1
    39    31    32    1
    40    36    37   ar
    41    37    38   ar
    42    38    40    1
    43    40    41    1
    44    41    42    1
    45    42    43    1
    46    42    44    1
    47    42    45    1
    48    45    46   ar
    49    45    47   ar
    50    38    39   ar
    51    39    34   ar
    52     9     4    1
    53    16    11   ar
    54    32    30    1
    55    28    21   ar
    56     6    10    1
@<TRIPOS>MOLECULE
*****
 52 56 0 0 0
SMALL
GASTEIGER

@<TRIPOS>ATOM
      1 N          61.5982   89.3224   11.8780 N.am    1  UNL1       -0.2770
      2 C          62.0734   88.8997   10.5194 C.2     1  UNL1        0.2270
      3 O          63.5277   88.6138   10.2890 O.2     1  UNL1       -0.2748
      4 C          61.0942   88.7629    9.3914 C.3     1  UNL1        0.0964
      5 C          60.3020   89.9530    8.9375 C.3     1  UNL1        0.0780
      6 N          59.3228   89.8162    7.8094 N.3     1  UNL1       -0.2970
      7 C          59.1359   88.4893    7.1353 C.3     1  UNL1        0.0689
      8 C          59.9282   87.2992    7.5891 C.3     1  UNL1        0.0220
      9 C          60.9074   87.4360    8.7172 C.3     1  UNL1        0.0337
     10 H          59.6120   90.4754    7.0869 H       1  UNL1        0.1233
     11 C          61.6997   86.2460    9.1711 C.ar    1  UNL1       -0.0217
     12 C          61.5554   85.7404   10.5760 C.ar    1  UNL1       -0.0012
     13 C          62.3477   84.5504   11.0299 C.ar    1  UNL1        0.0366
     14 C          63.2843   83.8658   10.0789 C.ar    1  UNL1        0.1387
     15 C          63.4285   84.3714    8.6741 C.ar    1  UNL1        0.0366
     16 C          62.6362   85.5615    8.2201 C.ar    1  UNL1       -0.0012
     17 O          64.0766   82.6758   10.5328 O.3     1  UNL1       -0.4714
     18 C          63.4218   81.6106   11.3615 C.3     1  UNL1        0.2525
     19 C          63.6317   81.5807   12.8464 C.3     1  UNL1        0.2525
     20 O          64.5519   82.5726   13.4939 O.3     1  UNL1       -0.4697
     21 C          64.0082   83.5757   14.4677 C.ar    1  UNL1        0.1596
     22 C          64.8427   84.7532   14.8761 C.ar    1  UNL1        0.0921
     23 CL         66.2211   84.9277   14.3107 Cl      1  UNL1       -0.0791
     24 C          64.2989   85.7563   15.8499 C.ar    1  UNL1        0.0103
     25 C          62.9206   85.5818   16.4152 C.ar    1  UNL1       -0.0200
     26 C          62.3768   86.5848   17.3890 C.3     1  UNL1        0.0311
     27 C          62.0860   84.4041   16.0068 C.ar    1  UNL1        0.0103
     28 C          62.6298   83.4011   15.0330 C.ar    1  UNL1        0.0921
     29 CL         61.7952   82.2235   14.6246 Cl      1  UNL1       -0.0791
     30 C          60.1438   89.6083   12.1084 C.3     1  UNL1        0.0758
     31 C          58.8007   89.1789   12.6199 C.3     1  UNL1        0.0215
     32 C          58.9680   90.5327   11.9961 C.3     1  UNL1        0.0215
     33 C          62.5774   89.4592   13.0060 C.3     1  UNL1        0.1201
     34 C          64.9506   92.3922   11.7750 C.ar    1  UNL1       -0.0194
     35 C          63.9940   91.2371   11.7482 C.ar    1  UNL1       -0.0067
     36 C          63.5340   90.6143   13.0329 C.ar    1  UNL1        0.0004
     37 C          64.0304   91.1466   14.3444 C.ar    1  UNL1        0.0343
     38 C          64.9870   92.3017   14.3712 C.ar    1  UNL1        0.1380
     39 C          65.4470   92.9245   13.0865 C.ar    1  UNL1        0.0326
     40 O          65.4835   92.8341   15.6828 O.3     1  UNL1       -0.4751
     41 C          66.8722   92.5087   16.1469 C.3     1  UNL1        0.2103
     42 C          67.9992   92.4514   15.1586 C.3     1  UNL1        0.0724
     43 C          68.3206   93.8889   15.4419 C.3     1  UNL1        0.0093
     44 C          67.6778   91.0140   14.8753 C.3     1  UNL1        0.0093
     45 C          69.1261   92.3943   14.1703 C.2     1  UNL1        0.0532
     46 O          68.9241   91.7313   12.8401 O.co2   1  UNL1       -0.5491
     47 O          70.4551   93.0000   14.5123 O.co2   1  UNL1       -0.5491
     48 C          65.4107   93.0150   10.4903 C.3     1  UNL1        0.0290
     49 C          66.2181   94.2788   10.5165 C.3     1  UNL1        0.0367
     50 C          67.2864   94.5077    9.4887 C.3     1  UNL1        0.1426
     51 C          68.8716   92.4706    9.1926 C.3     1  UNL1        0.1741
     52 O          68.6371   93.8773    9.6576 O.3     1  UNL1       -0.3511
@<TRIPOS>UNITY_ATOM_ATTR
46 1
charge -1
@<TRIPOS>BOND
     1    51    52    1
     2    52    50    1
     3    50    49    1
     4    49    48    1
     5    48    34    1
     6    34    35   ar
     7    35    36   ar
     8    36    33    1
     9    33     1    1
    10     1     2   am
    11     2     3    2
    12     4     2    1
    13     4     5    1
    14     5     6    1
    15     6     7    1
    16     7     8    1
    17     8     9    1
    18     9    11    1
    19    11    12   ar
    20    12    13   ar
    21    13    14   ar
    22    14    17    1
    23    17    18    1
    24    18    19    1
    25    19    20    1
    26    20    21    1
    27    21    22   ar
    28    22    23    1
    29    22    24   ar
    30    24    25   ar
    31    25    26    1
    32    25    27   ar
    33    27    28   ar
    34    28    29    1
    35    14    15   ar
    36    15    16   ar
    37     1    30    1
    38    30    31    1
    39    31    32    1
    40    36    37   ar
    41    37    38   ar
    42    38    40    1
    43    40    41    1
    44    41    42    1
    45    42    43    1
    46    42    44    1
    47    42    45    1
    48    45    46   ar
    49    45    47   ar
    50    38    39   ar
    51    39    34   ar
    52     9     4    1
    53    16    11   ar
    54    32    30    1
    55    28    21   ar
    56     6    10    1
@<TRIPOS>MOLECULE
*****
 52 56 0 0 0
SMALL
GASTEIGER

@<TRIPOS>ATOM
      1 N          62.9207   84.8246    8.7093 N.am    1  UNL1       -0.2770
      2 C          62.1436   85.7846    9.5605 C.2     1  UNL1        0.2270
      3 O          62.4952   85.9572   11.0085 O.2     1  UNL1       -0.2748
      4 C          61.0150   86.5721    8.9638 C.3     1  UNL1        0.0964
      5 C          60.0353   85.9017    8.0468 C.3     1  UNL1        0.0780
      6 N          58.9067   86.6892    7.4500 N.3     1  UNL1       -0.2970
      7 C          58.7577   88.1470    7.7702 C.3     1  UNL1        0.0689
      8 C          59.7374   88.8174    8.6873 C.3     1  UNL1        0.0220
      9 C          60.8660   88.0300    9.2840 C.3     1  UNL1        0.0337
     10 H          58.0425   86.2335    7.7431 H       1  UNL1        0.1233
     11 C          61.8457   88.7003   10.2010 C.ar    1  UNL1       -0.0217
     12 C          62.1123   88.1278   11.5616 C.ar    1  UNL1       -0.0012
     13 C          63.0920   88.7981   12.4786 C.ar    1  UNL1        0.0366
     14 C          63.8050   90.0410   12.0350 C.ar    1  UNL1        0.1387
     15 C          63.5384   90.6136   10.6745 C.ar    1  UNL1        0.0366
     16 C          62.5588   89.9432    9.7574 C.ar    1  UNL1       -0.0012
     17 O          64.7847   90.7114   12.9520 O.3     1  UNL1       -0.4714
     18 C          64.3594   91.8972   13.7663 C.3     1  UNL1        0.2525
     19 C          65.3910   92.8297   14.3286 C.3     1  UNL1        0.2525
     20 O          66.0403   93.8517   13.4433 O.3     1  UNL1       -0.4697
     21 C          66.7315   93.4219   12.1833 C.ar    1  UNL1        0.1596
     22 C          67.7289   92.3022   12.2195 C.ar    1  UNL1        0.0921
     23 CL         68.0353   91.6123   13.5157 Cl      1  UNL1       -0.0791
     24 C          68.4200   91.8724   10.9594 C.ar    1  UNL1        0.0103
     25 C          68.1137   92.5624    9.6632 C.ar    1  UNL1       -0.0200
     26 C          68.8048   92.1326    8.4032 C.3     1  UNL1        0.0311
     27 C          67.1162   93.6821    9.6271 C.ar    1  UNL1        0.0103
     28 C          66.4251   94.1119   10.8871 C.ar    1  UNL1        0.0921
     29 CL         65.4276   95.2316   10.8510 Cl      1  UNL1       -0.0791
     30 C          62.5691   84.6521    7.2613 C.3     1  UNL1        0.0758
     31 C          62.9214   84.8076    5.8116 C.3     1  UNL1        0.0215
     32 C          61.6081   84.1978    6.2031 C.3     1  UNL1        0.0215
     33 C          64.0493   84.0372    9.3060 C.3     1  UNL1        0.1201
     34 C          63.1022   81.4517   12.1641 C.ar    1  UNL1       -0.0194
     35 C          63.2550   82.0702   10.8061 C.ar    1  UNL1       -0.0067
     36 C          63.8965   83.4187   10.6641 C.ar    1  UNL1        0.0004
     37 C          64.3852   84.1486   11.8799 C.ar    1  UNL1        0.0343
     38 C          64.2324   83.5301   13.2378 C.ar    1  UNL1        0.1380
     39 C          63.5909   82.1817   13.3799 C.ar    1  UNL1        0.0326
     40 O          64.7211   84.2600   14.4538 O.3     1  UNL1       -0.4751
     41 C          64.5236   85.7425   14.5684 C.3     1  UNL1        0.2103
     42 C          63.7776   86.3115   15.7388 C.3     1  UNL1        0.0724
     43 C          63.3358   84.9319   16.1279 C.3     1  UNL1        0.0093
     44 C          64.2193   87.6912   15.3497 C.3     1  UNL1        0.0093
     45 C          63.0316   86.8805   16.9092 C.2     1  UNL1        0.0532
     46 O          62.1738   85.9887   17.7571 O.co2   1  UNL1       -0.5491
     47 O          63.1433   88.3412   17.2316 O.co2   1  UNL1       -0.5491
     48 C          62.4607   80.1033   12.3062 C.3     1  UNL1        0.0290
     49 C          61.7076   79.7590   13.5569 C.3     1  UNL1        0.0367
     50 C          60.8435   80.7904   14.2199 C.3     1  UNL1        0.1426
     51 C          58.7546   79.3100   14.6613 C.3     1  UNL1        0.1741
     52 O          59.3534   80.6194   14.2407 O.3     1  UNL1       -0.3511
@<TRIPOS>UNITY_ATOM_ATTR
46 1
charge -1
@<TRIPOS>BOND
     1    51    52    1
     2    52    50    1
     3    50    49    1
     4    49    48    1
     5    48    34    1
     6    34    35   ar
     7    35    36   ar
     8    36    33    1
     9    33     1    1
    10     1     2   am
    11     2     3    2
    12     4     2    1
    13     4     5    1
    14     5     6    1
    15     6     7    1
    16     7     8    1
    17     8     9    1
    18     9    11    1
    19    11    12   ar
    20    12    13   ar
    21    13    14   ar
    22    14    17    1
    23    17    18    1
    24    18    19    1
    25    19    20    1
    26    20    21    1
    27    21    22   ar
    28    22    23    1
    29    22    24   ar
    30    24    25   ar
    31    25    26    1
    32    25    27   ar
    33    27    28   ar
    34    28    29    1
    35    14    15   ar
    36    15    16   ar
    37     1    30    1
    38    30    31    1
    39    31    32    1
    40    36    37   ar
    41    37    38   ar
    42    38    40    1
    43    40    41    1
    44    41    42    1
    45    42    43    1
    46    42    44    1
    47    42    45    1
    48    45    46   ar
    49    45    47   ar
    50    38    39   ar
    51    39    34   ar
    52     9     4    1
    53    16    11   ar
    54    32    30    1
    55    28    21   ar
    56     6    10    1
@<TRIPOS>MOLECULE
*****
 52 56 0 0 0
SMALL
GASTEIGER

@<TRIPOS>ATOM
      1 N          62.1451   90.4996   12.0993 N.am    1  UNL1       -0.2770
      2 C          62.5911   90.4244   13.5295 C.2     1  UNL1        0.2270
      3 O          61.6760   89.8527   14.5714 O.2     1  UNL1       -0.2748
      4 C          63.9523   90.9209   13.9178 C.3     1  UNL1        0.0964
      5 C          64.4438   92.2414   13.4034 C.3     1  UNL1        0.0780
      6 N          65.8050   92.7379   13.7917 N.3     1  UNL1       -0.2970
      7 C          66.6746   91.9139   14.6942 C.3     1  UNL1        0.0689
      8 C          66.1831   90.5933   15.2086 C.3     1  UNL1        0.0220
      9 C          64.8220   90.0968   14.8204 C.3     1  UNL1        0.0337
     10 H          65.6697   93.6371   14.2537 H       1  UNL1        0.1233
     11 C          64.3304   88.7762   15.3347 C.ar    1  UNL1       -0.0217
     12 C          64.6801   87.5112   14.6084 C.ar    1  UNL1       -0.0012
     13 C          64.1886   86.1907   15.1227 C.ar    1  UNL1        0.0366
     14 C          63.3474   86.1351   16.3633 C.ar    1  UNL1        0.1387
     15 C          62.9977   87.4000   17.0897 C.ar    1  UNL1        0.0366
     16 C          63.4892   88.7207   16.5754 C.ar    1  UNL1       -0.0012
     17 O          62.8558   84.8146   16.8777 O.3     1  UNL1       -0.4714
     18 C          62.1312   83.8749   15.9600 C.3     1  UNL1        0.2525
     19 C          62.4400   83.8730   14.4922 C.3     1  UNL1        0.2525
     20 O          63.5979   83.0748   13.9705 O.3     1  UNL1       -0.4697
     21 C          63.3951   82.1102   12.8397 C.ar    1  UNL1        0.1596
     22 C          62.6177   80.8468   13.0619 C.ar    1  UNL1        0.0921
     23 CL         62.0430   80.5480   14.4148 Cl      1  UNL1       -0.0791
     24 C          62.4149   79.8822   11.9312 C.ar    1  UNL1        0.0103
     25 C          62.9896   80.1811   10.5782 C.ar    1  UNL1       -0.0200
     26 C          62.7869   79.2166    9.4475 C.3     1  UNL1        0.0311
     27 C          63.7671   81.4446   10.3561 C.ar    1  UNL1        0.0103
     28 C          63.9698   82.4091   11.4868 C.ar    1  UNL1        0.0921
     29 CL         64.7473   83.6725   11.2646 Cl      1  UNL1       -0.0791
     30 C          63.0603   91.0714   11.0574 C.3     1  UNL1        0.0758
     31 C          63.2951   91.5462    9.6540 C.3     1  UNL1        0.0215
     32 C          64.4105   91.5868   10.6560 C.3     1  UNL1        0.0215
     33 C          60.7840   90.0031   11.7110 C.3     1  UNL1        0.1201
     34 C          61.0616   86.7120    9.5107 C.ar    1  UNL1       -0.0194
     35 C          61.2126   87.6674   10.6571 C.ar    1  UNL1       -0.0067
     36 C          60.6330   89.0478   10.5645 C.ar    1  UNL1        0.0004
     37 C          59.9024   89.4728    9.3253 C.ar    1  UNL1        0.0343
     38 C          59.7515   88.5175    8.1788 C.ar    1  UNL1        0.1380
     39 C          60.3311   87.1371    8.2715 C.ar    1  UNL1        0.0326
     40 O          59.0209   88.9425    6.9396 O.3     1  UNL1       -0.4751
     41 C          59.7340   89.7316    5.8819 C.3     1  UNL1        0.2103
     42 C          59.0590   90.9075    5.2403 C.3     1  UNL1        0.0724
     43 C          57.7387   90.4446    5.7812 C.3     1  UNL1        0.0093
     44 C          60.3792   91.3705    4.6995 C.3     1  UNL1        0.0093
     45 C          58.3839   92.0834    4.5988 C.2     1  UNL1        0.0532
     46 O          59.1278   92.9246    3.6044 O.co2   1  UNL1       -0.5491
     47 O          56.9649   92.4179    4.9517 O.co2   1  UNL1       -0.5491
     48 C          61.6412   85.3317    9.6033 C.3     1  UNL1        0.0290
     49 C          62.9450   85.0190    8.9309 C.3     1  UNL1        0.0367
     50 C          63.0060   84.8862    7.4380 C.3     1  UNL1        0.1426
     51 C          61.8083   84.1594    5.2500 C.3     1  UNL1        0.1741
     52 O          61.7442   84.6944    6.6499 O.3     1  UNL1       -0.3511
@<TRIPOS>UNITY_ATOM_ATTR
46 1
charge -1
@<TRIPOS>BOND
     1    51    52    1
     2    52    50    1
     3    50    49    1
     4    49    48    1
     5    48    34    1
     6    34    35   ar
     7    35    36   ar
     8    36    33    1
     9    33     1    1
    10     1     2   am
    11     2     3    2
    12     4     2    1
    13     4     5    1
    14     5     6    1
    15     6     7    1
    16     7     8    1
    17     8     9    1
    18     9    11    1
    19    11    12   ar
    20    12    13   ar
    21    13    14   ar
    22    14    17    1
    23    17    18    1
    24    18    19    1
    25    19    20    1
    26    20    21    1
    27    21    22   ar
    28    22    23    1
    29    22    24   ar
    30    24    25   ar
    31    25    26    1
    32    25    27   ar
    33    27    28   ar
    34    28    29    1
    35    14    15   ar
    36    15    16   ar
    37     1    30    1
    38    30    31    1
    39    31    32    1
    40    36    37   ar
    41    37    38   ar
    42    38    40    1
    43    40    41    1
    44    41    42    1
    45    42    43    1
    46    42    44    1
    47    42    45    1
    48    45    46   ar
    49    45    47   ar
    50    38    39   ar
    51    39    34   ar
    52     9     4    1
    53    16    11   ar
    54    32    30    1
    55    28    21   ar
    56     6    10    1
@<TRIPOS>MOLECULE
*****
 52 56 0 0 0
SMALL
GASTEIGER

@<TRIPOS>ATOM
      1 N          62.9583   84.8813    8.8602 N.am    1  UNL1       -0.2770
      2 C          62.1693   85.8660    9.6716 C.2     1  UNL1        0.2270
      3 O          62.4510   86.0275   11.1360 O.2     1  UNL1       -0.2748
      4 C          61.0988   86.6890    9.0184 C.3     1  UNL1        0.0964
      5 C          60.1355   86.0463    8.0651 C.3     1  UNL1        0.0780
      6 N          59.0650   86.8693    7.4119 N.3     1  UNL1       -0.2970
      7 C          58.9578   88.3350    7.7121 C.3     1  UNL1        0.0689
      8 C          59.9212   88.9778    8.6654 C.3     1  UNL1        0.0220
      9 C          60.9917   88.1548    9.3186 C.3     1  UNL1        0.0337
     10 H          58.1720   86.4497    7.6706 H       1  UNL1        0.1233
     11 C          61.9551   88.7975   10.2719 C.ar    1  UNL1       -0.0217
     12 C          62.2685   88.1360   11.5812 C.ar    1  UNL1       -0.0012
     13 C          63.2319   88.7787   12.5345 C.ar    1  UNL1        0.0366
     14 C          63.8819   90.0829   12.1786 C.ar    1  UNL1        0.1387
     15 C          63.5684   90.7443   10.8693 C.ar    1  UNL1        0.0366
     16 C          62.6050   90.1017    9.9159 C.ar    1  UNL1       -0.0012
     17 O          64.8452   90.7255   13.1319 O.3     1  UNL1       -0.4714
     18 C          64.4253   91.9263   13.9269 C.3     1  UNL1        0.2525
     19 C          65.4614   92.8584   14.4814 C.3     1  UNL1        0.2525
     20 O          66.1150   93.8704   13.5878 O.3     1  UNL1       -0.4697
     21 C          66.7822   93.4303   12.3184 C.ar    1  UNL1        0.1596
     22 C          66.4478   94.1065   11.0220 C.ar    1  UNL1        0.0921
     23 CL         65.4464   95.2229   10.9948 Cl      1  UNL1       -0.0791
     24 C          67.1150   93.6664    9.7526 C.ar    1  UNL1        0.0103
     25 C          68.1164   92.5500    9.7797 C.ar    1  UNL1       -0.0200
     26 C          68.7836   92.1099    8.5104 C.3     1  UNL1        0.0311
     27 C          68.4508   91.8737   11.0763 C.ar    1  UNL1        0.0103
     28 C          67.7836   92.3139   12.3456 C.ar    1  UNL1        0.0921
     29 CL         68.1179   91.6376   13.6421 Cl      1  UNL1       -0.0791
     30 C          62.6766   84.7197    7.3958 C.3     1  UNL1        0.0758
     31 C          63.1402   84.7727    5.9703 C.3     1  UNL1        0.0215
     32 C          61.7253   84.3869    6.2849 C.3     1  UNL1        0.0215
     33 C          64.0288   84.0583    9.5134 C.3     1  UNL1        0.1201
     34 C          62.9399   80.7611   11.4351 C.ar    1  UNL1       -0.0194
     35 C          63.2919   81.7012   10.3206 C.ar    1  UNL1       -0.0067
     36 C          63.6768   83.1181   10.6280 C.ar    1  UNL1        0.0004
     37 C          63.7096   83.5948   12.0498 C.ar    1  UNL1        0.0343
     38 C          63.3576   82.6546   13.1643 C.ar    1  UNL1        0.1380
     39 C          62.9728   81.2377   12.8570 C.ar    1  UNL1        0.0326
     40 O          63.3905   83.1312   14.5862 O.3     1  UNL1       -0.4751
     41 C          64.2280   84.3180   14.9603 C.3     1  UNL1        0.2103
     42 C          63.6384   85.4211   15.7883 C.3     1  UNL1        0.0724
     43 C          64.6972   86.3602   15.2912 C.3     1  UNL1        0.0093
     44 C          62.5796   84.4821   16.2854 C.3     1  UNL1        0.0093
     45 C          63.0488   86.5242   16.6163 C.2     1  UNL1        0.0532
     46 O          62.1672   86.1959   17.7845 O.co2   1  UNL1       -0.5491
     47 O          63.3409   87.9556   16.2760 O.co2   1  UNL1       -0.5491
     48 C          62.5551   79.3442   11.1278 C.3     1  UNL1        0.0290
     49 C          62.9618   78.7224    9.8248 C.3     1  UNL1        0.0367
     50 C          63.6045   77.3671    9.8088 C.3     1  UNL1        0.1426
     51 C          65.1690   75.6937    8.5832 C.3     1  UNL1        0.1741
     52 O          64.7776   77.1039    8.9117 O.3     1  UNL1       -0.3511
@<TRIPOS>UNITY_ATOM_ATTR
46 1
charge -1
@<TRIPOS>BOND
     1    51    52    1
     2    52    50    1
     3    50    49    1
     4    49    48    1
     5    48    34    1
     6    34    35   ar
     7    35    36   ar
     8    36    33    1
     9    33     1    1
    10     1     2   am
    11     2     3    2
    12     4     2    1
    13     4     5    1
    14     5     6    1
    15     6     7    1
    16     7     8    1
    17     8     9    1
    18     9    11    1
    19    11    12   ar
    20    12    13   ar
    21    13    14   ar
    22    14    17    1
    23    17    18    1
    24    18    19    1
    25    19    20    1
    26    20    21    1
    27    21    22   ar
    28    22    23    1
    29    22    24   ar
    30    24    25   ar
    31    25    26    1
    32    25    27   ar
    33    27    28   ar
    34    28    29    1
    35    14    15   ar
    36    15    16   ar
    37     1    30    1
    38    30    31    1
    39    31    32    1
    40    36    37   ar
    41    37    38   ar
    42    38    40    1
    43    40    41    1
    44    41    42    1
    45    42    43    1
    46    42    44    1
    47    42    45    1
    48    45    46   ar
    49    45    47   ar
    50    38    39   ar
    51    39    34   ar
    52     9     4    1
    53    16    11   ar
    54    32    30    1
    55    28    21   ar
    56     6    10    1
@<TRIPOS>MOLECULE
*****
 52 56 0 0 0
SMALL
GASTEIGER

@<TRIPOS>ATOM
      1 N          64.2600   92.1263   11.4563 N.am    1  UNL1       -0.2770
      2 C          64.3289   91.9127   12.9395 C.2     1  UNL1        0.2270
      3 O          63.0902   91.5487   13.7031 O.2     1  UNL1       -0.2748
      4 C          65.6365   92.0631   13.6590 C.3     1  UNL1        0.0964
      5 C          66.5810   93.1636   13.2760 C.3     1  UNL1        0.0780
      6 N          67.8885   93.3140   13.9955 N.3     1  UNL1       -0.2970
      7 C          68.2516   92.3639   15.0979 C.3     1  UNL1        0.0689
      8 C          67.3071   91.2633   15.4809 C.3     1  UNL1        0.0220
      9 C          65.9995   91.1129   14.7614 C.3     1  UNL1        0.0337
     10 H          67.8963   94.2506   14.3995 H       1  UNL1        0.1233
     11 C          65.0550   90.0123   15.1444 C.ar    1  UNL1       -0.0217
     12 C          64.0213   90.2466   16.2058 C.ar    1  UNL1       -0.0012
     13 C          63.0768   89.1461   16.5888 C.ar    1  UNL1        0.0366
     14 C          63.1660   87.8112   15.9104 C.ar    1  UNL1        0.1387
     15 C          64.1997   87.5769   14.8490 C.ar    1  UNL1        0.0366
     16 C          65.1442   88.6775   14.4660 C.ar    1  UNL1       -0.0012
     17 O          62.2215   86.7107   16.2933 O.3     1  UNL1       -0.4714
     18 C          62.1466   85.4637   15.4629 C.3     1  UNL1        0.2525
     19 C          62.1657   84.1186   16.1263 C.3     1  UNL1        0.2525
     20 O          63.1757   83.0910   15.7093 O.3     1  UNL1       -0.4697
     21 C          63.3711   82.7783   14.2553 C.ar    1  UNL1        0.1596
     22 C          62.4583   81.8066   13.5678 C.ar    1  UNL1        0.0921
     23 CL         61.3501   81.1476   14.3344 Cl      1  UNL1       -0.0791
     24 C          62.6536   81.4939   12.1138 C.ar    1  UNL1        0.0103
     25 C          63.7619   82.1529   11.3473 C.ar    1  UNL1       -0.0200
     26 C          63.9573   81.8402    9.8933 C.3     1  UNL1        0.0311
     27 C          64.6747   83.1246   12.0348 C.ar    1  UNL1        0.0103
     28 C          64.4793   83.4373   13.4887 C.ar    1  UNL1        0.0921
     29 CL         65.3921   84.4090   14.1762 Cl      1  UNL1       -0.0791
     30 C          65.4987   92.4903   10.6927 C.3     1  UNL1        0.0758
     31 C          66.8440   92.1161   10.1449 C.3     1  UNL1        0.0215
     32 C          66.2988   93.4950    9.9179 C.3     1  UNL1        0.0215
     33 C          62.9524   91.9759   10.7369 C.3     1  UNL1        0.1201
     34 C          62.3124   88.0697   11.0228 C.ar    1  UNL1       -0.0194
     35 C          62.8734   89.4366   11.2808 C.ar    1  UNL1       -0.0067
     36 C          62.3913   90.6089   10.4788 C.ar    1  UNL1        0.0004
     37 C          61.3482   90.4143    9.4186 C.ar    1  UNL1        0.0343
     38 C          60.7871   89.0473    9.1606 C.ar    1  UNL1        0.1380
     39 C          61.2692   87.8750    9.9627 C.ar    1  UNL1        0.0326
     40 O          59.7439   88.8526    8.1004 O.3     1  UNL1       -0.4751
     41 C          60.0326   89.2479    6.6826 C.3     1  UNL1        0.2103
     42 C          59.1328   90.2185    5.9765 C.3     1  UNL1        0.0724
     43 C          60.3285   90.8674    5.3447 C.3     1  UNL1        0.0093
     44 C          57.9371   89.5696    6.6082 C.3     1  UNL1        0.0093
     45 C          58.2331   91.1890    5.2704 C.2     1  UNL1        0.0532
     46 O          56.7511   90.9587    5.2491 O.co2   1  UNL1       -0.5491
     47 O          58.8154   92.3898    4.5856 O.co2   1  UNL1       -0.5491
     48 C          62.7944   86.8974   11.8249 C.3     1  UNL1        0.0290
     49 C          62.1965   85.5398   11.6027 C.3     1  UNL1        0.0367
     50 C          62.0099   85.0216   10.2075 C.3     1  UNL1        0.1426
     51 C          62.8290   84.8577    7.7473 C.3     1  UNL1        0.1741
     52 O          63.0741   85.2480    9.1748 O.3     1  UNL1       -0.3511
@<TRIPOS>UNITY_ATOM_ATTR
46 1
charge -1
@<TRIPOS>BOND
     1    51    52    1
     2    52    50    1
     3    50    49    1
     4    49    48    1
     5    48    34    1
     6    34    35   ar
     7    35    36   ar
     8    36    33    1
     9    33     1    1
    10     1     2   am
    11     2     3    2
    12     4     2    1
    13     4     5    1
    14     5     6    1
    15     6     7    1
    16     7     8    1
    17     8     9    1
    18     9    11    1
    19    11    12   ar
    20    12    13   ar
    21    13    14   ar
    22    14    17    1
    23    17    18    1
    24    18    19    1
    25    19    20    1
    26    20    21    1
    27    21    22   ar
    28    22    23    1
    29    22    24   ar
    30    24    25   ar
    31    25    26    1
    32    25    27   ar
    33    27    28   ar
    34    28    29    1
    35    14    15   ar
    36    15    16   ar
    37     1    30    1
    38    30    31    1
    39    31    32    1
    40    36    37   ar
    41    37    38   ar
    42    38    40    1
    43    40    41    1
    44    41    42    1
    45    42    43    1
    46    42    44    1
    47    42    45    1
    48    45    46   ar
    49    45    47   ar
    50    38    39   ar
    51    39    34   ar
    52     9     4    1
    53    16    11   ar
    54    32    30    1
    55    28    21   ar
    56     6    10    1
@<TRIPOS>MOLECULE
*****
 52 56 0 0 0
SMALL
GASTEIGER

@<TRIPOS>ATOM
      1 N          61.9899   90.4449   11.8683 N.am    1  UNL1       -0.2770
      2 C          62.4645   90.3881   13.2901 C.2     1  UNL1        0.2270
      3 O          61.5673   89.8378   14.3588 O.2     1  UNL1       -0.2748
      4 C          63.8363   90.8816   13.6432 C.3     1  UNL1        0.0964
      5 C          64.3554   92.1517   13.0372 C.3     1  UNL1        0.0780
      6 N          65.7272   92.6453   13.3902 N.3     1  UNL1       -0.2970
      7 C          66.5798   91.8687   14.3493 C.3     1  UNL1        0.0689
      8 C          66.0607   90.5985   14.9553 C.3     1  UNL1        0.0220
      9 C          64.6890   90.1050   14.6023 C.3     1  UNL1        0.0337
     10 H          65.6115   93.5776   13.7875 H       1  UNL1        0.1233
     11 C          64.1698   88.8349   15.2083 C.ar    1  UNL1       -0.0217
     12 C          63.3691   88.8812   16.4759 C.ar    1  UNL1       -0.0012
     13 C          62.8500   87.6111   17.0819 C.ar    1  UNL1        0.0366
     14 C          63.1315   86.2946   16.4204 C.ar    1  UNL1        0.1387
     15 C          63.9322   86.2482   15.1528 C.ar    1  UNL1        0.0366
     16 C          64.4514   87.5184   14.5468 C.ar    1  UNL1       -0.0012
     17 O          62.6124   85.0245   17.0264 O.3     1  UNL1       -0.4714
     18 C          63.1556   83.7012   16.5747 C.3     1  UNL1        0.2525
     19 C          62.9734   83.2617   15.1522 C.3     1  UNL1        0.2525
     20 O          63.9692   82.3350   14.5202 O.3     1  UNL1       -0.4697
     21 C          63.6368   81.6425   13.2317 C.ar    1  UNL1        0.1596
     22 C          64.1903   82.1603   11.9374 C.ar    1  UNL1        0.0921
     23 CL         65.0763   83.3707   11.9314 Cl      1  UNL1       -0.0791
     24 C          63.8578   81.4678   10.6490 C.ar    1  UNL1        0.0103
     25 C          62.9718   80.2575   10.6550 C.ar    1  UNL1       -0.0200
     26 C          62.6394   79.5649    9.3667 C.3     1  UNL1        0.0311
     27 C          62.4183   79.7396   11.9495 C.ar    1  UNL1        0.0103
     28 C          62.7508   80.4322   13.2378 C.ar    1  UNL1        0.0921
     29 CL         62.1972   79.9143   14.5322 Cl      1  UNL1       -0.0791
     30 C          62.8871   90.9952   10.7995 C.3     1  UNL1        0.0758
     31 C          63.2463   91.1351    9.3499 C.3     1  UNL1        0.0215
     32 C          64.0817   91.8085   10.3980 C.3     1  UNL1        0.0215
     33 C          60.6181   89.9514   11.5152 C.3     1  UNL1        0.1201
     34 C          60.4831   87.1476    8.7098 C.ar    1  UNL1       -0.0194
     35 C          60.7207   87.8240   10.0273 C.ar    1  UNL1       -0.0067
     36 C          60.3805   89.2750   10.1976 C.ar    1  UNL1        0.0004
     37 C          59.8027   90.0495    9.0503 C.ar    1  UNL1        0.0343
     38 C          59.5651   89.3730    7.7328 C.ar    1  UNL1        0.1380
     39 C          59.9053   87.9221    7.5625 C.ar    1  UNL1        0.0326
     40 O          58.9873   90.1476    6.5855 O.3     1  UNL1       -0.4751
     41 C          59.7767   90.3162    5.3212 C.3     1  UNL1        0.2103
     42 C          59.6612   91.5844    4.5285 C.3     1  UNL1        0.0724
     43 C          58.1914   91.6348    4.8232 C.3     1  UNL1        0.0093
     44 C          61.1311   91.5341    4.2337 C.3     1  UNL1        0.0093
     45 C          59.5457   92.8526    3.7357 C.2     1  UNL1        0.0532
     46 O          59.4973   92.7987    2.2375 O.co2   1  UNL1       -0.5491
     47 O          59.4787   94.1746    4.4413 O.co2   1  UNL1       -0.5491
     48 C          60.8233   85.6966    8.5395 C.3     1  UNL1        0.0290
     49 C          62.2516   85.2780    8.3532 C.3     1  UNL1        0.0367
     50 C          63.0909   84.9240    9.5450 C.3     1  UNL1        0.1426
     51 C          62.3200   85.5911   11.9347 C.3     1  UNL1        0.1741
     52 O          62.4341   84.5663   10.8453 O.3     1  UNL1       -0.3511
@<TRIPOS>UNITY_ATOM_ATTR
46 1
charge -1
@<TRIPOS>BOND
     1    51    52    1
     2    52    50    1
     3    50    49    1
     4    49    48    1
     5    48    34    1
     6    34    35   ar
     7    35    36   ar
     8    36    33    1
     9    33     1    1
    10     1     2   am
    11     2     3    2
    12     4     2    1
    13     4     5    1
    14     5     6    1
    15     6     7    1
    16     7     8    1
    17     8     9    1
    18     9    11    1
    19    11    12   ar
    20    12    13   ar
    21    13    14   ar
    22    14    17    1
    23    17    18    1
    24    18    19    1
    25    19    20    1
    26    20    21    1
    27    21    22   ar
    28    22    23    1
    29    22    24   ar
    30    24    25   ar
    31    25    26    1
    32    25    27   ar
    33    27    28   ar
    34    28    29    1
    35    14    15   ar
    36    15    16   ar
    37     1    30    1
    38    30    31    1
    39    31    32    1
    40    36    37   ar
    41    37    38   ar
    42    38    40    1
    43    40    41    1
    44    41    42    1
    45    42    43    1
    46    42    44    1
    47    42    45    1
    48    45    46   ar
    49    45    47   ar
    50    38    39   ar
    51    39    34   ar
    52     9     4    1
    53    16    11   ar
    54    32    30    1
    55    28    21   ar
    56     6    10    1
