@<TRIPOS>MOLECULE
*****
 26 29 0 0 0
SMALL
GASTEIGER

@<TRIPOS>ATOM
      1 N          62.0035   87.3293   11.5758 N.ar    1  UNL1       -0.2954
      2 C          62.7656   86.5310   12.5916 C.ar    1  UNL1        0.2014
      3 N          63.7510   87.4462   13.2559 N.ar    1  UNL1       -0.2136
      4 C          63.5979   88.8101   12.6506 C.ar    1  UNL1        0.0999
      5 C          64.3025   90.1085   12.9109 C.ar    1  UNL1        0.0207
      6 C          63.9269   91.3347   12.1328 C.ar    1  UNL1        0.0016
      7 C          62.8469   91.2624   11.0944 C.ar    1  UNL1        0.0016
      8 C          62.1423   89.9640   10.8341 C.ar    1  UNL1        0.0188
      9 C          62.5179   88.7379   11.6123 C.ar    1  UNL1        0.0801
     10 N          62.5757   85.0734   12.8906 N.pl3   1  UNL1       -0.2794
     11 C          62.2804   84.6276   14.2920 C.3     1  UNL1        0.0949
     12 C          62.0904   83.1700   14.5910 C.3     1  UNL1        0.0375
     13 C          62.1958   82.1583   13.4886 C.3     1  UNL1        0.0610
     14 C          62.4910   82.6042   12.0872 C.3     1  UNL1        0.0375
     15 C          62.6810   84.0617   11.7882 C.3     1  UNL1        0.0949
     16 N          62.0058   80.7007   13.7876 N.3     1  UNL1       -0.2715
     17 C          60.6629   80.1930   14.2219 C.3     1  UNL1        0.0896
     18 C          63.1588   79.7509   13.6523 C.3     1  UNL1        0.0896
     19 C          60.9176   86.8102   10.6806 C.3     1  UNL1        0.1354
     20 C          62.3158   84.2935    5.4165 C.3     1  UNL1        0.0310
     21 C          61.9662   84.9227    6.7325 C.ar    1  UNL1       -0.0219
     22 C          63.0026   85.0292    7.8117 C.ar    1  UNL1       -0.0045
     23 C          62.6530   85.6584    9.1277 C.ar    1  UNL1       -0.0027
     24 C          61.2671   86.1811    9.3646 C.ar    1  UNL1        0.0004
     25 C          60.2308   86.0745    8.2854 C.ar    1  UNL1       -0.0027
     26 C          60.5804   85.4453    6.9694 C.ar    1  UNL1       -0.0045
@<TRIPOS>BOND
     1    20    21    1
     2    21    22   ar
     3    22    23   ar
     4    23    24   ar
     5    24    19    1
     6    19     1    1
     7     1     2   ar
     8     2    10    1
     9    10    11    1
    10    11    12    1
    11    12    13    1
    12    13    16    1
    13    16    17    1
    14    16    18    1
    15    13    14    1
    16    14    15    1
    17     2     3   ar
    18     3     4   ar
    19     4     5   ar
    20     5     6   ar
    21     6     7   ar
    22     7     8   ar
    23     8     9   ar
    24    24    25   ar
    25    25    26   ar
    26    26    21   ar
    27     9     1   ar
    28    15    10    1
    29     9     4   ar
@<TRIPOS>MOLECULE
*****
 26 29 0 0 0
SMALL
GASTEIGER

@<TRIPOS>ATOM
      1 N          63.3550   84.1204   12.0014 N.ar    1  UNL1       -0.2954
      2 C          63.3175   84.8678   13.3014 C.ar    1  UNL1        0.2014
      3 N          62.9657   83.8934   14.3862 N.ar    1  UNL1       -0.2136
      4 C          62.7857   82.5438   13.7567 C.ar    1  UNL1        0.0999
      5 C          62.4338   81.2054   14.3351 C.ar    1  UNL1        0.0207
      6 C          62.3225   80.0072   13.4396 C.ar    1  UNL1        0.0016
      7 C          62.5632   80.1475   11.9657 C.ar    1  UNL1        0.0016
      8 C          62.9151   81.4859   11.3873 C.ar    1  UNL1        0.0188
      9 C          63.0263   82.6841   12.2828 C.ar    1  UNL1        0.0801
     10 N          63.5850   86.3323   13.4845 N.pl3   1  UNL1       -0.2794
     11 C          63.1079   87.3159   12.4574 C.3     1  UNL1        0.0949
     12 C          63.3753   88.7805   12.6404 C.3     1  UNL1        0.0375
     13 C          64.1198   89.2615   13.8506 C.3     1  UNL1        0.0610
     14 C          64.5968   88.2779   14.8776 C.3     1  UNL1        0.0375
     15 C          64.3294   86.8133   14.6946 C.3     1  UNL1        0.0949
     16 N          64.3872   90.7261   14.0336 N.3     1  UNL1       -0.2715
     17 C          64.5691   91.6107   12.8360 C.3     1  UNL1        0.0896
     18 C          64.4727   91.3060   15.4143 C.3     1  UNL1        0.0896
     19 C          63.6665   84.7063   10.6562 C.3     1  UNL1        0.1354
     20 C          59.2500   86.9256    7.2549 C.3     1  UNL1        0.0310
     21 C          60.3541   86.3708    8.1052 C.ar    1  UNL1       -0.0219
     22 C          60.3160   86.5492    9.5941 C.ar    1  UNL1       -0.0045
     23 C          61.4201   85.9943   10.4444 C.ar    1  UNL1       -0.0027
     24 C          62.5624   85.2611    9.8059 C.ar    1  UNL1        0.0004
     25 C          62.6005   85.0828    8.3170 C.ar    1  UNL1       -0.0027
     26 C          61.4963   85.6376    7.4667 C.ar    1  UNL1       -0.0045
@<TRIPOS>BOND
     1    20    21    1
     2    21    22   ar
     3    22    23   ar
     4    23    24   ar
     5    24    19    1
     6    19     1    1
     7     1     2   ar
     8     2    10    1
     9    10    11    1
    10    11    12    1
    11    12    13    1
    12    13    16    1
    13    16    17    1
    14    16    18    1
    15    13    14    1
    16    14    15    1
    17     2     3   ar
    18     3     4   ar
    19     4     5   ar
    20     5     6   ar
    21     6     7   ar
    22     7     8   ar
    23     8     9   ar
    24    24    25   ar
    25    25    26   ar
    26    26    21   ar
    27     9     1   ar
    28    15    10    1
    29     9     4   ar
@<TRIPOS>MOLECULE
*****
 26 29 0 0 0
SMALL
GASTEIGER

@<TRIPOS>ATOM
      1 N          61.9887   88.0557   10.9017 N.ar    1  UNL1       -0.2954
      2 C          62.2604   89.5297   10.8428 C.ar    1  UNL1        0.2014
      3 N          61.4840   90.0984    9.6923 N.ar    1  UNL1       -0.2136
      4 C          60.7325   88.9759    9.0401 C.ar    1  UNL1        0.0999
      5 C          59.8044   88.9403    7.8623 C.ar    1  UNL1        0.0207
      6 C          59.1884   87.6421    7.4319 C.ar    1  UNL1        0.0016
      7 C          59.5003   86.3796    8.1794 C.ar    1  UNL1        0.0016
      8 C          60.4284   86.4153    9.3573 C.ar    1  UNL1        0.0188
      9 C          61.0444   87.7134    9.7876 C.ar    1  UNL1        0.0801
     10 N          63.1519   90.2998   11.7713 N.pl3   1  UNL1       -0.2794
     11 C          64.0394   91.3825   11.2328 C.3     1  UNL1        0.0949
     12 C          64.9310   92.1526   12.1614 C.3     1  UNL1        0.0375
     13 C          64.9349   91.8400   13.6284 C.3     1  UNL1        0.0610
     14 C          64.0474   90.7573   14.1669 C.3     1  UNL1        0.0375
     15 C          63.1559   89.9872   13.2383 C.3     1  UNL1        0.0949
     16 N          65.8264   92.6100   14.5569 N.3     1  UNL1       -0.2715
     17 C          65.7416   92.3841   16.0373 C.3     1  UNL1        0.0896
     18 C          66.8028   93.6061   14.0050 C.3     1  UNL1        0.0896
     19 C          62.5609   87.0929   11.8996 C.3     1  UNL1        0.1354
     20 C          63.4198   81.3528   10.3790 C.3     1  UNL1        0.0310
     21 C          63.2051   82.7878   10.7591 C.ar    1  UNL1       -0.0219
     22 C          62.7568   83.1369   12.1474 C.ar    1  UNL1       -0.0045
     23 C          62.5421   84.5720   12.5275 C.ar    1  UNL1       -0.0027
     24 C          62.7757   85.6580   11.5194 C.ar    1  UNL1        0.0004
     25 C          63.2240   85.3088   10.1312 C.ar    1  UNL1       -0.0027
     26 C          63.4387   83.8737    9.7511 C.ar    1  UNL1       -0.0045
@<TRIPOS>BOND
     1    20    21    1
     2    21    22   ar
     3    22    23   ar
     4    23    24   ar
     5    24    19    1
     6    19     1    1
     7     1     2   ar
     8     2    10    1
     9    10    11    1
    10    11    12    1
    11    12    13    1
    12    13    16    1
    13    16    17    1
    14    16    18    1
    15    13    14    1
    16    14    15    1
    17     2     3   ar
    18     3     4   ar
    19     4     5   ar
    20     5     6   ar
    21     6     7   ar
    22     7     8   ar
    23     8     9   ar
    24    24    25   ar
    25    25    26   ar
    26    26    21   ar
    27     9     1   ar
    28    15    10    1
    29     9     4   ar
@<TRIPOS>MOLECULE
*****
 26 29 0 0 0
SMALL
GASTEIGER

@<TRIPOS>ATOM
      1 N          64.3503   90.9849   14.2936 N.ar    1  UNL1       -0.2954
      2 C          64.3783   90.9985   12.7939 C.ar    1  UNL1        0.2014
      3 N          65.5541   91.8225   12.3598 N.ar    1  UNL1       -0.2136
      4 C          66.2528   92.3182   13.5911 C.ar    1  UNL1        0.0999
      5 C          67.4704   93.1740   13.7784 C.ar    1  UNL1        0.0207
      6 C          67.9439   93.5121   15.1609 C.ar    1  UNL1        0.0016
      7 C          67.1999   92.9944   16.3561 C.ar    1  UNL1        0.0016
      8 C          65.9824   92.1386   16.1688 C.ar    1  UNL1        0.0188
      9 C          65.5088   91.8005   14.7863 C.ar    1  UNL1        0.0801
     10 N          63.4019   90.3092   11.8876 N.pl3   1  UNL1       -0.2794
     11 C          62.6494   91.0978   10.8572 C.3     1  UNL1        0.0949
     12 C          61.6730   90.4084    9.9508 C.3     1  UNL1        0.0375
     13 C          61.4492   88.9305   10.0749 C.3     1  UNL1        0.0610
     14 C          62.2017   88.1418   11.1053 C.3     1  UNL1        0.0375
     15 C          63.1781   88.8312   12.0116 C.3     1  UNL1        0.0949
     16 N          60.4728   88.2411    9.1685 N.3     1  UNL1       -0.2715
     17 C          59.7564   89.0208    8.1061 C.3     1  UNL1        0.0896
     18 C          60.2128   86.7721    9.3246 C.3     1  UNL1        0.0896
     19 C          63.3410   90.2796   15.1503 C.3     1  UNL1        0.1354
     20 C          64.0108   84.4476   16.3908 C.3     1  UNL1        0.0310
     21 C          63.8433   85.9056   16.0807 C.ar    1  UNL1       -0.0219
     22 C          64.4898   86.4919   14.8607 C.ar    1  UNL1       -0.0045
     23 C          64.3224   87.9499   14.5506 C.ar    1  UNL1       -0.0027
     24 C          63.5085   88.8217   15.4604 C.ar    1  UNL1        0.0004
     25 C          62.8620   88.2353   16.6804 C.ar    1  UNL1       -0.0027
     26 C          63.0295   86.7773   16.9905 C.ar    1  UNL1       -0.0045
@<TRIPOS>BOND
     1    20    21    1
     2    21    22   ar
     3    22    23   ar
     4    23    24   ar
     5    24    19    1
     6    19     1    1
     7     1     2   ar
     8     2    10    1
     9    10    11    1
    10    11    12    1
    11    12    13    1
    12    13    16    1
    13    16    17    1
    14    16    18    1
    15    13    14    1
    16    14    15    1
    17     2     3   ar
    18     3     4   ar
    19     4     5   ar
    20     5     6   ar
    21     6     7   ar
    22     7     8   ar
    23     8     9   ar
    24    24    25   ar
    25    25    26   ar
    26    26    21   ar
    27     9     1   ar
    28    15    10    1
    29     9     4   ar
@<TRIPOS>MOLECULE
*****
 26 29 0 0 0
SMALL
GASTEIGER

@<TRIPOS>ATOM
      1 N          63.4417   83.9858   11.5199 N.ar    1  UNL1       -0.2954
      2 C          63.4305   84.5122   12.9245 C.ar    1  UNL1        0.2014
      3 N          63.1663   83.3608   13.8488 N.ar    1  UNL1       -0.2136
      4 C          63.0143   82.1228   13.0156 C.ar    1  UNL1        0.0999
      5 C          62.7428   80.6937   13.3816 C.ar    1  UNL1        0.0207
      6 C          62.6416   79.6509   12.3082 C.ar    1  UNL1        0.0016
      7 C          62.8119   80.0372   10.8689 C.ar    1  UNL1        0.0016
      8 C          63.0833   81.4662   10.5029 C.ar    1  UNL1        0.0188
      9 C          63.1845   82.5091   11.5762 C.ar    1  UNL1        0.0801
     10 N          63.6457   85.9394   13.3329 N.pl3   1  UNL1       -0.2794
     11 C          64.3040   86.2533   14.6436 C.3     1  UNL1        0.0949
     12 C          64.5191   87.6805   15.0520 C.3     1  UNL1        0.0375
     13 C          64.0760   88.7938   14.1497 C.3     1  UNL1        0.0610
     14 C          63.4177   88.4799   12.8390 C.3     1  UNL1        0.0375
     15 C          63.2025   87.0527   12.4306 C.3     1  UNL1        0.0949
     16 N          64.2911   90.2210   14.5582 N.3     1  UNL1       -0.2715
     17 C          63.7205   90.7255   15.8503 C.3     1  UNL1        0.0896
     18 C          65.0769   91.1437   13.6744 C.3     1  UNL1        0.0896
     19 C          63.6701   84.7941   10.2772 C.3     1  UNL1        0.1354
     20 C          59.0046   87.1513    7.3317 C.3     1  UNL1        0.0310
     21 C          60.1710   86.5620    8.0680 C.ar    1  UNL1       -0.0219
     22 C          60.3748   86.8726    9.5213 C.ar    1  UNL1       -0.0045
     23 C          61.5413   86.2833   10.2577 C.ar    1  UNL1       -0.0027
     24 C          62.5038   85.3834    9.5408 C.ar    1  UNL1        0.0004
     25 C          62.2998   85.0729    8.0875 C.ar    1  UNL1       -0.0027
     26 C          61.1334   85.6622    7.3512 C.ar    1  UNL1       -0.0045
@<TRIPOS>BOND
     1    20    21    1
     2    21    22   ar
     3    22    23   ar
     4    23    24   ar
     5    24    19    1
     6    19     1    1
     7     1     2   ar
     8     2    10    1
     9    10    11    1
    10    11    12    1
    11    12    13    1
    12    13    16    1
    13    16    17    1
    14    16    18    1
    15    13    14    1
    16    14    15    1
    17     2     3   ar
    18     3     4   ar
    19     4     5   ar
    20     5     6   ar
    21     6     7   ar
    22     7     8   ar
    23     8     9   ar
    24    24    25   ar
    25    25    26   ar
    26    26    21   ar
    27     9     1   ar
    28    15    10    1
    29     9     4   ar
@<TRIPOS>MOLECULE
*****
 26 29 0 0 0
SMALL
GASTEIGER

@<TRIPOS>ATOM
      1 N          62.4054   87.3058   10.5721 N.ar    1  UNL1       -0.2954
      2 C          62.2515   88.7268   11.0270 C.ar    1  UNL1        0.2014
      3 N          61.0926   89.3271   10.2878 N.ar    1  UNL1       -0.2136
      4 C          60.5303   88.2772    9.3760 C.ar    1  UNL1        0.0999
      5 C          59.3843   88.2973    8.4084 C.ar    1  UNL1        0.0207
      6 C          59.0496   87.0681    7.6166 C.ar    1  UNL1        0.0016
      7 C          59.8611   85.8188    7.7923 C.ar    1  UNL1        0.0016
      8 C          61.0071   85.7987    8.7598 C.ar    1  UNL1        0.0188
      9 C          61.3417   87.0279    9.5517 C.ar    1  UNL1        0.0801
     10 N          63.1064   89.4249   12.0428 N.pl3   1  UNL1       -0.2794
     11 C          63.5419   88.7002   13.2818 C.3     1  UNL1        0.0949
     12 C          64.3968   89.3983   14.2976 C.3     1  UNL1        0.0375
     13 C          64.8161   90.8211   14.0745 C.3     1  UNL1        0.0610
     14 C          64.3805   91.5458   12.8355 C.3     1  UNL1        0.0375
     15 C          63.5256   90.8477   11.8197 C.3     1  UNL1        0.0949
     16 N          65.6710   91.5192   15.0903 N.3     1  UNL1       -0.2715
     17 C          67.1560   91.5972   14.8943 C.3     1  UNL1        0.0896
     18 C          65.0408   92.1392   16.3020 C.3     1  UNL1        0.0896
     19 C          63.4413   86.3333   11.0531 C.3     1  UNL1        0.1354
     20 C          61.7768   81.4373   14.0958 C.3     1  UNL1        0.0310
     21 C          62.1929   82.6613   13.3351 C.ar    1  UNL1       -0.0219
     22 C          62.4925   82.5670   11.8683 C.ar    1  UNL1       -0.0045
     23 C          62.9086   83.7910   11.1077 C.ar    1  UNL1       -0.0027
     24 C          63.0252   85.1094   11.8137 C.ar    1  UNL1        0.0004
     25 C          62.7256   85.2036   13.2805 C.ar    1  UNL1       -0.0027
     26 C          62.3095   83.9796   14.0411 C.ar    1  UNL1       -0.0045
@<TRIPOS>BOND
     1    20    21    1
     2    21    22   ar
     3    22    23   ar
     4    23    24   ar
     5    24    19    1
     6    19     1    1
     7     1     2   ar
     8     2    10    1
     9    10    11    1
    10    11    12    1
    11    12    13    1
    12    13    16    1
    13    16    17    1
    14    16    18    1
    15    13    14    1
    16    14    15    1
    17     2     3   ar
    18     3     4   ar
    19     4     5   ar
    20     5     6   ar
    21     6     7   ar
    22     7     8   ar
    23     8     9   ar
    24    24    25   ar
    25    25    26   ar
    26    26    21   ar
    27     9     1   ar
    28    15    10    1
    29     9     4   ar
@<TRIPOS>MOLECULE
*****
 26 29 0 0 0
SMALL
GASTEIGER

@<TRIPOS>ATOM
      1 N          62.7049   85.2157   12.3051 N.ar    1  UNL1       -0.2954
      2 C          63.6215   85.7910   13.3439 C.ar    1  UNL1        0.2014
      3 N          64.2365   84.6517   14.1014 N.ar    1  UNL1       -0.2136
      4 C          63.7000   83.3724   13.5308 C.ar    1  UNL1        0.0999
      5 C          63.9512   81.9351   13.8787 C.ar    1  UNL1        0.0207
      6 C          63.2558   80.8464   13.1164 C.ar    1  UNL1        0.0016
      7 C          62.3092   81.1950   12.0063 C.ar    1  UNL1        0.0016
      8 C          62.0581   82.6322   11.6584 C.ar    1  UNL1        0.0188
      9 C          62.7535   83.7209   12.4206 C.ar    1  UNL1        0.0801
     10 N          63.8779   87.2494   13.5831 N.pl3   1  UNL1       -0.2794
     11 C          64.5731   87.6930   14.8360 C.3     1  UNL1        0.0949
     12 C          64.8296   89.1514   15.0752 C.3     1  UNL1        0.0375
     13 C          64.3909   90.1662   14.0616 C.3     1  UNL1        0.0610
     14 C          63.6957   89.7226   12.8086 C.3     1  UNL1        0.0375
     15 C          63.4392   88.2642   12.5694 C.3     1  UNL1        0.0949
     16 N          64.6474   91.6246   14.3008 N.3     1  UNL1       -0.2715
     17 C          64.4309   92.2104   15.6646 C.3     1  UNL1        0.0896
     18 C          65.1204   92.4973   13.1762 C.3     1  UNL1        0.0896
     19 C          61.8839   85.9979   11.3232 C.3     1  UNL1        0.1354
     20 C          62.0117   84.5711    5.4967 C.3     1  UNL1        0.0310
     21 C          61.9797   84.9278    6.9533 C.ar    1  UNL1       -0.0219
     22 C          63.1546   84.6086    7.8296 C.ar    1  UNL1       -0.0045
     23 C          63.1227   84.9653    9.2862 C.ar    1  UNL1       -0.0027
     24 C          61.9158   85.6412    9.8666 C.ar    1  UNL1        0.0004
     25 C          60.7410   85.9604    8.9903 C.ar    1  UNL1       -0.0027
     26 C          60.7730   85.6037    7.5337 C.ar    1  UNL1       -0.0045
@<TRIPOS>BOND
     1    20    21    1
     2    21    22   ar
     3    22    23   ar
     4    23    24   ar
     5    24    19    1
     6    19     1    1
     7     1     2   ar
     8     2    10    1
     9    10    11    1
    10    11    12    1
    11    12    13    1
    12    13    16    1
    13    16    17    1
    14    16    18    1
    15    13    14    1
    16    14    15    1
    17     2     3   ar
    18     3     4   ar
    19     4     5   ar
    20     5     6   ar
    21     6     7   ar
    22     7     8   ar
    23     8     9   ar
    24    24    25   ar
    25    25    26   ar
    26    26    21   ar
    27     9     1   ar
    28    15    10    1
    29     9     4   ar
@<TRIPOS>MOLECULE
*****
 26 29 0 0 0
SMALL
GASTEIGER

@<TRIPOS>ATOM
      1 N          61.9120   87.2129   11.1996 N.ar    1  UNL1       -0.2954
      2 C          61.5272   86.8411    9.7983 C.ar    1  UNL1        0.2014
      3 N          62.0270   85.4519    9.5334 N.ar    1  UNL1       -0.2136
      4 C          62.7207   84.9650   10.7711 C.ar    1  UNL1        0.0999
      5 C          63.4080   83.6713   11.0934 C.ar    1  UNL1        0.0207
      6 C          64.0241   83.4659   12.4455 C.ar    1  UNL1        0.0016
      7 C          63.9530   84.5543   13.4752 C.ar    1  UNL1        0.0016
      8 C          63.2657   85.8480   13.1529 C.ar    1  UNL1        0.0188
      9 C          62.6496   86.0534   11.8008 C.ar    1  UNL1        0.0801
     10 N          60.7747   87.7067    8.8315 N.pl3   1  UNL1       -0.2794
     11 C          59.9861   87.0796    7.7203 C.3     1  UNL1        0.0949
     12 C          59.2336   87.9452    6.7535 C.3     1  UNL1        0.0375
     13 C          59.2696   89.4377    6.8980 C.3     1  UNL1        0.0610
     14 C          60.0582   90.0647    8.0093 C.3     1  UNL1        0.0375
     15 C          60.8107   89.1992    8.9760 C.3     1  UNL1        0.0949
     16 N          58.5171   90.3033    5.9313 N.3     1  UNL1       -0.2715
     17 C          57.0251   90.1895    5.8271 C.3     1  UNL1        0.0896
     18 C          59.2566   91.2826    5.0688 C.3     1  UNL1        0.0896
     19 C          61.6118   88.5154   11.8802 C.3     1  UNL1        0.1354
     20 C          66.0059   92.4908   12.8223 C.3     1  UNL1        0.0310
     21 C          64.9074   91.4970   12.5868 C.ar    1  UNL1       -0.0219
     22 C          64.6088   90.4504   13.6191 C.ar    1  UNL1       -0.0045
     23 C          63.5103   89.4566   13.3835 C.ar    1  UNL1       -0.0027
     24 C          62.7103   89.5092   12.1157 C.ar    1  UNL1        0.0004
     25 C          63.0089   90.5558   11.0835 C.ar    1  UNL1       -0.0027
     26 C          64.1074   91.5496   11.3190 C.ar    1  UNL1       -0.0045
@<TRIPOS>BOND
     1    20    21    1
     2    21    22   ar
     3    22    23   ar
     4    23    24   ar
     5    24    19    1
     6    19     1    1
     7     1     2   ar
     8     2    10    1
     9    10    11    1
    10    11    12    1
    11    12    13    1
    12    13    16    1
    13    16    17    1
    14    16    18    1
    15    13    14    1
    16    14    15    1
    17     2     3   ar
    18     3     4   ar
    19     4     5   ar
    20     5     6   ar
    21     6     7   ar
    22     7     8   ar
    23     8     9   ar
    24    24    25   ar
    25    25    26   ar
    26    26    21   ar
    27     9     1   ar
    28    15    10    1
    29     9     4   ar
@<TRIPOS>MOLECULE
*****
 26 29 0 0 0
SMALL
GASTEIGER

@<TRIPOS>ATOM
      1 N          63.4722   87.2090   12.5877 N.ar    1  UNL1       -0.2954
      2 C          62.6949   86.2309   11.7575 C.ar    1  UNL1        0.2014
      3 N          61.9047   87.0069   10.7458 N.ar    1  UNL1       -0.2136
      4 C          62.1936   88.4645   10.9508 C.ar    1  UNL1        0.0999
      5 C          61.6997   89.6941   10.2479 C.ar    1  UNL1        0.0207
      6 C          62.1745   91.0486   10.6835 C.ar    1  UNL1        0.0016
      7 C          63.1433   91.1735   11.8218 C.ar    1  UNL1        0.0016
      8 C          63.6372   89.9439   12.5247 C.ar    1  UNL1        0.0188
      9 C          63.1624   88.5894   12.0892 C.ar    1  UNL1        0.0801
     10 N          62.7059   84.7389   11.9119 N.pl3   1  UNL1       -0.2794
     11 C          62.2923   84.1164   13.2124 C.3     1  UNL1        0.0949
     12 C          62.3033   82.6244   13.3667 C.3     1  UNL1        0.0375
     13 C          62.7278   81.7549   12.2206 C.3     1  UNL1        0.0610
     14 C          63.1414   82.3775   10.9201 C.3     1  UNL1        0.0375
     15 C          63.1305   83.8695   10.7657 C.3     1  UNL1        0.0949
     16 N          62.7388   80.2629   12.3749 N.3     1  UNL1       -0.2715
     17 C          62.6518   79.6496   13.7410 C.3     1  UNL1        0.0896
     18 C          62.8368   79.3843   11.1632 C.3     1  UNL1        0.0896
     19 C          64.3969   86.8667   13.7181 C.3     1  UNL1        0.1354
     20 C          62.4398   87.1397   19.3833 C.3     1  UNL1        0.0310
     21 C          62.9291   87.0714   17.9670 C.ar    1  UNL1       -0.0219
     22 C          63.1142   88.3324   17.1759 C.ar    1  UNL1       -0.0045
     23 C          63.6034   88.2641   15.7596 C.ar    1  UNL1       -0.0027
     24 C          63.9077   86.9349   15.1343 C.ar    1  UNL1        0.0004
     25 C          63.7226   85.6740   15.9255 C.ar    1  UNL1       -0.0027
     26 C          63.2333   85.7423   17.3418 C.ar    1  UNL1       -0.0045
@<TRIPOS>BOND
     1    20    21    1
     2    21    22   ar
     3    22    23   ar
     4    23    24   ar
     5    24    19    1
     6    19     1    1
     7     1     2   ar
     8     2    10    1
     9    10    11    1
    10    11    12    1
    11    12    13    1
    12    13    16    1
    13    16    17    1
    14    16    18    1
    15    13    14    1
    16    14    15    1
    17     2     3   ar
    18     3     4   ar
    19     4     5   ar
    20     5     6   ar
    21     6     7   ar
    22     7     8   ar
    23     8     9   ar
    24    24    25   ar
    25    25    26   ar
    26    26    21   ar
    27     9     1   ar
    28    15    10    1
    29     9     4   ar
