@<TRIPOS>MOLECULE
*****
 26 28 0 0 0
SMALL
GASTEIGER

@<TRIPOS>ATOM
      1 C          65.4638   90.7828   14.3291 C.3     1  UNL1        0.1367
      2 O          66.1816   89.6097   14.9280 O.3     1  UNL1       -0.3803
      3 H          65.6344   88.8141   14.8353 H       1  UNL1        0.2108
      4 C          66.6149   91.6730   14.6931 C.ar    1  UNL1        0.0316
      5 C          67.8678   91.6536   13.8686 C.ar    1  UNL1        0.0026
      6 C          69.0190   92.5438   14.2325 C.ar    1  UNL1        0.0295
      7 C          68.9172   93.4533   15.4209 C.ar    1  UNL1        0.1424
      8 F          70.0684   94.3435   15.7848 F       1  UNL1       -0.2041
      9 C          67.6643   93.4727   16.2455 C.ar    1  UNL1        0.0590
     10 C          66.5131   92.5825   15.8815 C.ar    1  UNL1        0.1406
     11 F          65.2602   92.6019   16.7060 F       1  UNL1       -0.2044
     12 C          63.5239   89.8679   13.0414 C.3     1  UNL1        0.0092
     13 C          64.3126   89.8926   13.9652 C.3     1  UNL1        0.0731
     14 C          63.9466   88.7396   14.8522 C.ar    1  UNL1        0.0919
     15 N          64.1643   87.3323   14.3809 N.ar    1  UNL1       -0.2260
     16 C          63.7983   86.1793   15.2679 C.ar    1  UNL1        0.1987
     17 N          63.2145   86.4337   16.6260 N.ar    1  UNL1       -0.2201
     18 C          62.9968   87.8410   17.0972 C.ar    1  UNL1        0.1314
     19 C          63.3628   88.9939   16.2103 C.ar    1  UNL1        0.1727
     20 F          63.1451   90.4013   16.6815 F       1  UNL1       -0.2013
     21 C          64.7460   91.9559   13.7302 C.3     1  UNL1        0.1606
     22 N          65.3271   92.6641   12.5426 N.ar    1  UNL1       -0.2273
     23 C          65.3200   92.1652   11.1280 C.ar    1  UNL1        0.1973
     24 N          66.0059   93.1885   10.2721 N.ar    1  UNL1       -0.2007
     25 C          66.4370   94.3198   11.1577 C.ar    1  UNL1        0.2210
     26 N          66.0175   93.9958   12.5609 N.ar    1  UNL1       -0.1451
@<TRIPOS>BOND
     1    13    12    1
     2    13    14    1
     3    14    15   ar
     4    15    16   ar
     5    16    17   ar
     6    17    18   ar
     7    18    19   ar
     8    19    20    1
     9    13     1    1
    10     1     2    1
    11     1    21    1
    12    21    22    1
    13    22    23   ar
    14    23    24   ar
    15    24    25   ar
    16    25    26   ar
    17     1     4    1
    18     4     5   ar
    19     5     6   ar
    20     6     7   ar
    21     7     8    1
    22     7     9   ar
    23     9    10   ar
    24    10    11    1
    25    19    14   ar
    26    26    22   ar
    27    10     4   ar
    28     2     3    1
@<TRIPOS>MOLECULE
*****
 26 28 0 0 0
SMALL
GASTEIGER

@<TRIPOS>ATOM
      1 C          63.5562   85.0537   12.5556 C.3     1  UNL1        0.1367
      2 O          63.1912   86.4781   12.8518 O.3     1  UNL1       -0.3803
      3 H          63.5064   86.7151   13.7380 H       1  UNL1        0.2108
      4 C          62.9101   85.1687   11.2067 C.ar    1  UNL1        0.0316
      5 C          61.6558   85.9746   11.0422 C.ar    1  UNL1        0.0026
      6 C          61.0097   86.0895    9.6933 C.ar    1  UNL1        0.0295
      7 C          61.6180   85.3986    8.5091 C.ar    1  UNL1        0.1424
      8 F          60.9719   85.5135    7.1602 F       1  UNL1       -0.2041
      9 C          62.8724   84.5926    8.6736 C.ar    1  UNL1        0.0590
     10 C          63.5184   84.4776   10.0224 C.ar    1  UNL1        0.1406
     11 F          64.7727   83.6717   10.1870 F       1  UNL1       -0.2044
     12 C          65.1342   84.2934   14.3417 C.3     1  UNL1        0.0092
     13 C          64.2023   84.9388   13.9044 C.3     1  UNL1        0.0731
     14 C          63.6805   85.7445   15.0571 C.ar    1  UNL1        0.0919
     15 N          64.0137   87.2030   15.1644 N.ar    1  UNL1       -0.2260
     16 C          63.4919   88.0087   16.3170 C.ar    1  UNL1        0.1987
     17 N          62.6368   87.3558   17.3623 N.ar    1  UNL1       -0.2201
     18 C          62.3036   85.8973   17.2550 C.ar    1  UNL1        0.1314
     19 C          62.8254   85.0916   16.1024 C.ar    1  UNL1        0.1727
     20 F          62.4921   83.6330   15.9950 F       1  UNL1       -0.2013
     21 C          63.9212   83.6293   12.2593 C.3     1  UNL1        0.1606
     22 N          63.2145   82.5113   12.9668 N.ar    1  UNL1       -0.2273
     23 C          63.8385   81.2300   13.4348 C.ar    1  UNL1        0.1973
     24 N          62.7692   80.4051   14.0877 N.ar    1  UNL1       -0.2007
     25 C          61.4843   81.1765   14.0232 C.ar    1  UNL1        0.2210
     26 N          61.7595   82.4781   13.3304 N.ar    1  UNL1       -0.1451
@<TRIPOS>BOND
     1    13    12    1
     2    13    14    1
     3    14    15   ar
     4    15    16   ar
     5    16    17   ar
     6    17    18   ar
     7    18    19   ar
     8    19    20    1
     9    13     1    1
    10     1     2    1
    11     1    21    1
    12    21    22    1
    13    22    23   ar
    14    23    24   ar
    15    24    25   ar
    16    25    26   ar
    17     1     4    1
    18     4     5   ar
    19     5     6   ar
    20     6     7   ar
    21     7     8    1
    22     7     9   ar
    23     9    10   ar
    24    10    11    1
    25    19    14   ar
    26    26    22   ar
    27    10     4   ar
    28     2     3    1
@<TRIPOS>MOLECULE
*****
 26 28 0 0 0
SMALL
GASTEIGER

@<TRIPOS>ATOM
      1 C          64.0290   84.5609   13.5247 C.3     1  UNL1        0.1367
      2 O          65.4205   84.3236   14.0321 O.3     1  UNL1       -0.3803
      3 H          65.8491   83.6405   13.4930 H       1  UNL1        0.2108
      4 C          63.8180   85.5974   14.5882 C.ar    1  UNL1        0.0316
      5 C          64.3075   86.9994   14.3767 C.ar    1  UNL1        0.0026
      6 C          64.0964   88.0359   15.4403 C.ar    1  UNL1        0.0295
      7 C          63.3959   87.6705   16.7153 C.ar    1  UNL1        0.1424
      8 F          63.1849   88.7070   17.7788 F       1  UNL1       -0.2041
      9 C          62.9064   86.2684   16.9268 C.ar    1  UNL1        0.0590
     10 C          63.1174   85.2319   15.8633 C.ar    1  UNL1        0.1406
     11 F          62.6279   83.8299   16.0747 F       1  UNL1       -0.2044
     12 C          64.8397   83.5090   11.4046 C.3     1  UNL1        0.0092
     13 C          64.2400   83.5244   12.4612 C.3     1  UNL1        0.0731
     14 C          63.6307   82.1618   12.6104 C.ar    1  UNL1        0.0919
     15 N          63.4404   81.5708   13.9758 N.ar    1  UNL1       -0.2260
     16 C          62.8310   80.2083   14.1250 C.ar    1  UNL1        0.1987
     17 N          62.4121   79.4368   12.9088 N.ar    1  UNL1       -0.2201
     18 C          62.6024   80.0278   11.5434 C.ar    1  UNL1        0.1314
     19 C          63.2117   81.3903   11.3942 C.ar    1  UNL1        0.1727
     20 F          63.4021   81.9814   10.0287 F       1  UNL1       -0.2013
     21 C          62.6375   84.7982   13.0173 C.3     1  UNL1        0.1606
     22 N          62.4113   85.7062   11.8450 N.ar    1  UNL1       -0.2273
     23 C          62.0725   85.2755   10.4487 C.ar    1  UNL1        0.1973
     24 N          61.9360   86.5076    9.6039 N.ar    1  UNL1       -0.2007
     25 C          62.1905   87.6996   10.4781 C.ar    1  UNL1        0.2210
     26 N          62.4843   87.2044   11.8632 N.ar    1  UNL1       -0.1451
@<TRIPOS>BOND
     1    13    12    1
     2    13    14    1
     3    14    15   ar
     4    15    16   ar
     5    16    17   ar
     6    17    18   ar
     7    18    19   ar
     8    19    20    1
     9    13     1    1
    10     1     2    1
    11     1    21    1
    12    21    22    1
    13    22    23   ar
    14    23    24   ar
    15    24    25   ar
    16    25    26   ar
    17     1     4    1
    18     4     5   ar
    19     5     6   ar
    20     6     7   ar
    21     7     8    1
    22     7     9   ar
    23     9    10   ar
    24    10    11    1
    25    19    14   ar
    26    26    22   ar
    27    10     4   ar
    28     2     3    1
@<TRIPOS>MOLECULE
*****
 26 28 0 0 0
SMALL
GASTEIGER

@<TRIPOS>ATOM
      1 C          64.6217   90.0143   14.4756 C.3     1  UNL1        0.1367
      2 O          66.0290   89.6353   14.8305 O.3     1  UNL1       -0.3803
      3 H          66.6423   90.2937   14.4683 H       1  UNL1        0.2108
      4 C          64.1132   88.8004   15.1952 C.ar    1  UNL1        0.0316
      5 C          64.3813   87.4327   14.6408 C.ar    1  UNL1        0.0026
      6 C          63.8728   86.2188   15.3604 C.ar    1  UNL1        0.0295
      7 C          63.0963   86.3726   16.6344 C.ar    1  UNL1        0.1424
      8 F          62.5878   85.1587   17.3540 F       1  UNL1       -0.2041
      9 C          62.8282   87.7403   17.1890 C.ar    1  UNL1        0.0590
     10 C          63.3367   88.9543   16.4694 C.ar    1  UNL1        0.1406
     11 F          63.0687   90.3220   17.0238 F       1  UNL1       -0.2044
     12 C          64.7259   91.8834   12.8161 C.3     1  UNL1        0.0092
     13 C          65.1302   91.2283   13.7560 C.3     1  UNL1        0.0731
     14 C          66.4108   91.8768   14.1915 C.ar    1  UNL1        0.0919
     15 N          67.6364   91.7676   13.3336 N.ar    1  UNL1       -0.2260
     16 C          68.9169   92.4161   13.7691 C.ar    1  UNL1        0.1987
     17 N          68.9718   93.1737   15.0626 N.ar    1  UNL1       -0.2201
     18 C          67.7463   93.2829   15.9205 C.ar    1  UNL1        0.1314
     19 C          66.4658   92.6344   15.4849 C.ar    1  UNL1        0.1727
     20 F          65.2401   92.7436   16.3428 F       1  UNL1       -0.2013
     21 C          63.2145   90.3934   14.1207 C.3     1  UNL1        0.1606
     22 N          62.5263   89.7262   12.9669 N.ar    1  UNL1       -0.2273
     23 C          63.1954   88.9586   11.8655 C.ar    1  UNL1        0.1973
     24 N          62.1308   88.4675   10.9298 N.ar    1  UNL1       -0.2007
     25 C          60.8038   88.9315   11.4529 C.ar    1  UNL1        0.2210
     26 N          61.0482   89.7095   12.7119 N.ar    1  UNL1       -0.1451
@<TRIPOS>BOND
     1    13    12    1
     2    13    14    1
     3    14    15   ar
     4    15    16   ar
     5    16    17   ar
     6    17    18   ar
     7    18    19   ar
     8    19    20    1
     9    13     1    1
    10     1     2    1
    11     1    21    1
    12    21    22    1
    13    22    23   ar
    14    23    24   ar
    15    24    25   ar
    16    25    26   ar
    17     1     4    1
    18     4     5   ar
    19     5     6   ar
    20     6     7   ar
    21     7     8    1
    22     7     9   ar
    23     9    10   ar
    24    10    11    1
    25    19    14   ar
    26    26    22   ar
    27    10     4   ar
    28     2     3    1
@<TRIPOS>MOLECULE
*****
 26 28 0 0 0
SMALL
GASTEIGER

@<TRIPOS>ATOM
      1 C          65.3278   92.5292   11.7263 C.3     1  UNL1        0.1367
      2 O          64.9479   91.7247   10.5186 O.3     1  UNL1       -0.3803
      3 H          64.4307   90.9519   10.7946 H       1  UNL1        0.2108
      4 C          66.0417   93.5124   10.8467 C.ar    1  UNL1        0.0316
      5 C          65.5836   94.9397   10.7913 C.ar    1  UNL1        0.0026
      6 C          66.2975   95.9229    9.9117 C.ar    1  UNL1        0.0295
      7 C          67.4695   95.4788    9.0876 C.ar    1  UNL1        0.1424
      8 F          68.1834   96.4620    8.2080 F       1  UNL1       -0.2041
      9 C          67.9277   94.0515    9.1430 C.ar    1  UNL1        0.0590
     10 C          67.2138   93.0683   10.0226 C.ar    1  UNL1        0.1406
     11 F          67.6719   91.6411   10.0780 F       1  UNL1       -0.2044
     12 C          64.6907   91.2557   13.7832 C.3     1  UNL1        0.0092
     13 C          64.6139   91.5460   12.6059 C.3     1  UNL1        0.0731
     14 C          63.5456   90.6635   12.0313 C.ar    1  UNL1        0.0919
     15 N          62.5803   91.2134   11.0234 N.ar    1  UNL1       -0.2260
     16 C          61.5121   90.3309   10.4490 C.ar    1  UNL1        0.1987
     17 N          61.4091   88.8986   10.8824 N.ar    1  UNL1       -0.2201
     18 C          62.3744   88.3488   11.8903 C.ar    1  UNL1        0.1314
     19 C          63.4426   89.2312   12.4648 C.ar    1  UNL1        0.1727
     20 F          64.4080   88.6814   13.4727 F       1  UNL1       -0.2013
     21 C          65.7077   93.3337   12.9339 C.3     1  UNL1        0.1606
     22 N          66.9723   93.0196   13.6769 N.ar    1  UNL1       -0.2273
     23 C          67.3644   93.5624   15.0192 C.ar    1  UNL1        0.1973
     24 N          68.7013   92.9857   15.3799 N.ar    1  UNL1       -0.2007
     25 C          69.1356   92.0866   14.2606 C.ar    1  UNL1        0.2210
     26 N          68.0671   92.1075   13.2081 N.ar    1  UNL1       -0.1451
@<TRIPOS>BOND
     1    13    12    1
     2    13    14    1
     3    14    15   ar
     4    15    16   ar
     5    16    17   ar
     6    17    18   ar
     7    18    19   ar
     8    19    20    1
     9    13     1    1
    10     1     2    1
    11     1    21    1
    12    21    22    1
    13    22    23   ar
    14    23    24   ar
    15    24    25   ar
    16    25    26   ar
    17     1     4    1
    18     4     5   ar
    19     5     6   ar
    20     6     7   ar
    21     7     8    1
    22     7     9   ar
    23     9    10   ar
    24    10    11    1
    25    19    14   ar
    26    26    22   ar
    27    10     4   ar
    28     2     3    1
@<TRIPOS>MOLECULE
*****
 26 28 0 0 0
SMALL
GASTEIGER

@<TRIPOS>ATOM
      1 C          61.9500   87.7099   11.4287 C.3     1  UNL1        0.1367
      2 O          63.3617   87.9853   11.8545 O.3     1  UNL1       -0.3803
      3 H          63.4349   88.9041   12.1566 H       1  UNL1        0.2108
      4 C          62.3291   86.3002   11.0837 C.ar    1  UNL1        0.0316
      5 C          62.2643   85.2284   12.1312 C.ar    1  UNL1        0.0026
      6 C          62.6433   83.8187   11.7862 C.ar    1  UNL1        0.0295
      7 C          63.0872   83.4807   10.3939 C.ar    1  UNL1        0.1424
      8 F          63.4662   82.0710   10.0489 F       1  UNL1       -0.2041
      9 C          63.1520   84.5525    9.3464 C.ar    1  UNL1        0.0590
     10 C          62.7730   85.9622    9.6913 C.ar    1  UNL1        0.1406
     11 F          62.8378   87.0339    8.6439 F       1  UNL1       -0.2044
     12 C          60.5149   89.7160   11.8467 C.3     1  UNL1        0.0092
     13 C          61.5710   89.1196   11.7736 C.3     1  UNL1        0.0731
     14 C          62.6343   90.1173   12.1260 C.ar    1  UNL1        0.0919
     15 N          63.1008   90.2463   13.5458 N.ar    1  UNL1       -0.2260
     16 C          64.1640   91.2439   13.8982 C.ar    1  UNL1        0.1987
     17 N          64.7607   92.1126   12.8308 N.ar    1  UNL1       -0.2201
     18 C          64.2943   91.9836   11.4110 C.ar    1  UNL1        0.1314
     19 C          63.2310   90.9860   11.0587 C.ar    1  UNL1        0.1727
     20 F          62.7645   90.8570    9.6389 F       1  UNL1       -0.2013
     21 C          60.5384   87.4345   11.0029 C.3     1  UNL1        0.1606
     22 N          60.1119   87.7160    9.5926 N.ar    1  UNL1       -0.2273
     23 C          59.4572   86.7421    8.6584 C.ar    1  UNL1        0.1973
     24 N          59.2059   87.4452    7.3574 N.ar    1  UNL1       -0.2007
     25 C          59.7053   88.8536    7.4875 C.ar    1  UNL1        0.2210
     26 N          60.2652   89.0210    8.8689 N.ar    1  UNL1       -0.1451
@<TRIPOS>BOND
     1    13    12    1
     2    13    14    1
     3    14    15   ar
     4    15    16   ar
     5    16    17   ar
     6    17    18   ar
     7    18    19   ar
     8    19    20    1
     9    13     1    1
    10     1     2    1
    11     1    21    1
    12    21    22    1
    13    22    23   ar
    14    23    24   ar
    15    24    25   ar
    16    25    26   ar
    17     1     4    1
    18     4     5   ar
    19     5     6   ar
    20     6     7   ar
    21     7     8    1
    22     7     9   ar
    23     9    10   ar
    24    10    11    1
    25    19    14   ar
    26    26    22   ar
    27    10     4   ar
    28     2     3    1
@<TRIPOS>MOLECULE
*****
 26 28 0 0 0
SMALL
GASTEIGER

@<TRIPOS>ATOM
      1 C          62.6696   87.6942   11.7065 C.3     1  UNL1        0.1367
      2 O          63.5945   87.0297   12.6826 O.3     1  UNL1       -0.3803
      3 H          63.4150   86.0766   12.7007 H       1  UNL1        0.2108
      4 C          63.2910   89.0225   12.0219 C.ar    1  UNL1        0.0316
      5 C          63.3694   90.0838   10.9648 C.ar    1  UNL1        0.0026
      6 C          63.9908   91.4121   11.2803 C.ar    1  UNL1        0.0295
      7 C          64.5338   91.6791   12.6528 C.ar    1  UNL1        0.1424
      8 F          65.1552   93.0074   12.9682 F       1  UNL1       -0.2041
      9 C          64.4554   90.6178   13.7100 C.ar    1  UNL1        0.0590
     10 C          63.8340   89.2895   13.3945 C.ar    1  UNL1        0.1406
     11 F          63.7555   88.2282   14.4516 F       1  UNL1       -0.2044
     12 C          61.1669   86.0041   10.6369 C.3     1  UNL1        0.0092
     13 C          62.0482   86.3659   11.3910 C.3     1  UNL1        0.0731
     14 C          62.5276   85.1286   12.0905 C.ar    1  UNL1        0.0919
     15 N          62.2429   84.9342   13.5503 N.ar    1  UNL1       -0.2260
     16 C          62.7223   83.6969   14.2497 C.ar    1  UNL1        0.1987
     17 N          63.4865   82.6540   13.4892 N.ar    1  UNL1       -0.2201
     18 C          63.7713   82.8483   12.0294 C.ar    1  UNL1        0.1314
     19 C          63.2918   84.0856   11.3301 C.ar    1  UNL1        0.1727
     20 F          63.5766   84.2801    9.8702 F       1  UNL1       -0.2013
     21 C          61.7446   88.3587   10.7303 C.3     1  UNL1        0.1606
     22 N          60.5758   89.1562   11.2282 N.ar    1  UNL1       -0.2273
     23 C          60.0772   90.4463   10.6475 C.ar    1  UNL1        0.1973
     24 N          58.8936   90.8910   11.4547 N.ar    1  UNL1       -0.2007
     25 C          58.6608   89.8759   12.5342 C.ar    1  UNL1        0.2210
     26 N          59.7004   88.8037   12.3942 N.ar    1  UNL1       -0.1451
@<TRIPOS>BOND
     1    13    12    1
     2    13    14    1
     3    14    15   ar
     4    15    16   ar
     5    16    17   ar
     6    17    18   ar
     7    18    19   ar
     8    19    20    1
     9    13     1    1
    10     1     2    1
    11     1    21    1
    12    21    22    1
    13    22    23   ar
    14    23    24   ar
    15    24    25   ar
    16    25    26   ar
    17     1     4    1
    18     4     5   ar
    19     5     6   ar
    20     6     7   ar
    21     7     8    1
    22     7     9   ar
    23     9    10   ar
    24    10    11    1
    25    19    14   ar
    26    26    22   ar
    27    10     4   ar
    28     2     3    1
@<TRIPOS>MOLECULE
*****
 26 28 0 0 0
SMALL
GASTEIGER

@<TRIPOS>ATOM
      1 C          63.1683   89.1549   12.9190 C.3     1  UNL1        0.1367
      2 O          63.2774   87.6696   12.7402 O.3     1  UNL1       -0.3803
      3 H          63.8551   87.3028   13.4277 H       1  UNL1        0.2108
      4 C          62.2593   89.2314   11.7282 C.ar    1  UNL1        0.0316
      5 C          62.7908   88.9295   10.3584 C.ar    1  UNL1        0.0026
      6 C          61.8818   89.0061    9.1676 C.ar    1  UNL1        0.0295
      7 C          60.4415   89.3845    9.3466 C.ar    1  UNL1        0.1424
      8 F          59.5325   89.4610    8.1558 F       1  UNL1       -0.2041
      9 C          59.9099   89.6864   10.7164 C.ar    1  UNL1        0.0590
     10 C          60.8189   89.6099   11.9072 C.ar    1  UNL1        0.1406
     11 F          60.2875   89.9118   13.2770 F       1  UNL1       -0.2044
     12 C          65.0974   89.6546   14.4314 C.3     1  UNL1        0.0092
     13 C          64.0772   89.0784   14.1098 C.3     1  UNL1        0.0731
     14 C          63.7755   88.1195   15.2232 C.ar    1  UNL1        0.0919
     15 N          64.0582   86.6566   15.0504 N.ar    1  UNL1       -0.2260
     16 C          63.7565   85.6979   16.1638 C.ar    1  UNL1        0.1987
     17 N          63.1720   86.2020   17.4500 N.ar    1  UNL1       -0.2201
     18 C          62.8893   87.6649   17.6228 C.ar    1  UNL1        0.1314
     19 C          63.1910   88.6237   16.5094 C.ar    1  UNL1        0.1727
     20 F          62.9083   90.0867   16.6821 F       1  UNL1       -0.2013
     21 C          63.0591   90.6402   13.0977 C.3     1  UNL1        0.1606
     22 N          64.0434   91.5509   12.4256 N.ar    1  UNL1       -0.2273
     23 C          64.2070   91.7341   10.9458 C.ar    1  UNL1        0.1973
     24 N          65.3017   92.7348   10.7210 N.ar    1  UNL1       -0.2007
     25 C          65.8146   93.1699   12.0617 C.ar    1  UNL1        0.2210
     26 N          65.0370   92.4383   13.1152 N.ar    1  UNL1       -0.1451
@<TRIPOS>BOND
     1    13    12    1
     2    13    14    1
     3    14    15   ar
     4    15    16   ar
     5    16    17   ar
     6    17    18   ar
     7    18    19   ar
     8    19    20    1
     9    13     1    1
    10     1     2    1
    11     1    21    1
    12    21    22    1
    13    22    23   ar
    14    23    24   ar
    15    24    25   ar
    16    25    26   ar
    17     1     4    1
    18     4     5   ar
    19     5     6   ar
    20     6     7   ar
    21     7     8    1
    22     7     9   ar
    23     9    10   ar
    24    10    11    1
    25    19    14   ar
    26    26    22   ar
    27    10     4   ar
    28     2     3    1
@<TRIPOS>MOLECULE
*****
 26 28 0 0 0
SMALL
GASTEIGER

@<TRIPOS>ATOM
      1 C          62.6379   87.7141   11.7238 C.3     1  UNL1        0.1367
      2 O          63.5637   87.0319   12.6869 O.3     1  UNL1       -0.3803
      3 H          63.3876   86.0781   12.6842 H       1  UNL1        0.2108
      4 C          63.2542   89.0375   12.0688 C.ar    1  UNL1        0.0316
      5 C          63.6562   89.3315   13.4837 C.ar    1  UNL1        0.0026
      6 C          64.2724   90.6549   13.8287 C.ar    1  UNL1        0.0295
      7 C          64.4866   91.6841   12.7588 C.ar    1  UNL1        0.1424
      8 F          65.1029   93.0075   13.1038 F       1  UNL1       -0.2041
      9 C          64.0846   91.3901   11.3439 C.ar    1  UNL1        0.0590
     10 C          63.4684   90.0668   10.9989 C.ar    1  UNL1        0.1406
     11 F          63.0664   89.7727    9.5840 F       1  UNL1       -0.2044
     12 C          61.1558   86.0397   10.6021 C.3     1  UNL1        0.0092
     13 C          62.0217   86.3908   11.3788 C.3     1  UNL1        0.0731
     14 C          62.4852   85.1440   12.0723 C.ar    1  UNL1        0.0919
     15 N          62.1625   84.9275   13.5210 N.ar    1  UNL1       -0.2260
     16 C          62.6261   83.6808   14.2144 C.ar    1  UNL1        0.1987
     17 N          63.4123   82.6506   13.4590 N.ar    1  UNL1       -0.2201
     18 C          63.7350   82.8672   12.0103 C.ar    1  UNL1        0.1314
     19 C          63.2715   84.1139   11.3169 C.ar    1  UNL1        0.1727
     20 F          63.5942   84.3305    9.8681 F       1  UNL1       -0.2013
     21 C          61.7122   88.3963   10.7607 C.3     1  UNL1        0.1606
     22 N          60.5372   89.1749   11.2736 N.ar    1  UNL1       -0.2273
     23 C          60.0645   90.5012   10.7561 C.ar    1  UNL1        0.1973
     24 N          58.8637   90.9099   11.5568 N.ar    1  UNL1       -0.2007
     25 C          58.5941   89.8363   12.5691 C.ar    1  UNL1        0.2210
     26 N          59.6284   88.7640   12.3941 N.ar    1  UNL1       -0.1451
@<TRIPOS>BOND
     1    13    12    1
     2    13    14    1
     3    14    15   ar
     4    15    16   ar
     5    16    17   ar
     6    17    18   ar
     7    18    19   ar
     8    19    20    1
     9    13     1    1
    10     1     2    1
    11     1    21    1
    12    21    22    1
    13    22    23   ar
    14    23    24   ar
    15    24    25   ar
    16    25    26   ar
    17     1     4    1
    18     4     5   ar
    19     5     6   ar
    20     6     7   ar
    21     7     8    1
    22     7     9   ar
    23     9    10   ar
    24    10    11    1
    25    19    14   ar
    26    26    22   ar
    27    10     4   ar
    28     2     3    1
