@<TRIPOS>MOLECULE
*****
 28 31 0 0 0
SMALL
GASTEIGER

@<TRIPOS>ATOM
      1 C          63.6471   88.2008   13.2998 C.ar    1  UNL1        0.0912
      2 C          64.1978   89.1485   14.3238 C.ar    1  UNL1        0.0466
      3 C          64.0728   90.6292   14.1193 C.ar    1  UNL1        0.1631
      4 C          63.3972   91.1623   12.8906 C.ar    1  UNL1        0.1193
      5 N          62.8466   90.2145   11.8666 N.ar    1  UNL1       -0.2846
      6 C          62.1347   90.4444   10.5665 C.ar    1  UNL1        0.1023
      7 C          61.8196   89.1057    9.9676 C.ar    1  UNL1        0.1195
      8 N          62.3368   88.0485   10.8976 N.ar    1  UNL1       -0.2247
      9 C          62.9715   88.7338   12.0712 C.ar    1  UNL1        0.1524
     10 O          64.6032   86.1864   14.6335 O.2     1  UNL1       -0.2697
     11 C          63.7721   86.7201   13.5044 C.2     1  UNL1        0.2536
     12 N          63.0660   85.7730   12.5801 N.am    1  UNL1       -0.2657
     13 H          62.5206   86.1232   11.8391 H       1  UNL1        0.1566
     14 C          63.1911   84.2923   12.7848 C.ar    1  UNL1        0.1367
     15 C          64.3064   83.5357   12.1262 C.ar    1  UNL1        0.0346
     16 C          64.4315   82.0550   12.3308 C.ar    1  UNL1        0.0068
     17 C          63.4413   81.3308   13.1940 C.ar    1  UNL1        0.0498
     18 C          62.3259   82.0875   13.8526 C.ar    1  UNL1        0.2234
     19 F          61.3357   81.3633   14.7158 F       1  UNL1       -0.1832
     20 N          62.2009   83.5681   13.6479 N.ar    1  UNL1       -0.2029
     21 O          64.6235   91.5769   15.1434 O.3     1  UNL1       -0.4503
     22 C          66.0646   91.9891   15.0856 C.ar    1  UNL1        0.1667
     23 C          66.6525   92.8178   16.1890 C.ar    1  UNL1        0.1364
     24 N          68.0936   93.2300   16.1313 N.ar    1  UNL1       -0.2368
     25 C          68.9468   92.8134   14.9701 C.ar    1  UNL1        0.1286
     26 C          68.3590   91.9847   13.8666 C.ar    1  UNL1        0.1623
     27 F          69.2122   91.5680   12.7053 F       1  UNL1       -0.2024
     28 C          66.9179   91.5725   13.9244 C.ar    1  UNL1        0.0703
@<TRIPOS>BOND
     1    10    11    2
     2    11    12   am
     3    12    14    1
     4    14    15   ar
     5    15    16   ar
     6    16    17   ar
     7    17    18   ar
     8    18    19    1
     9    18    20   ar
    10    11     1    1
    11     1     2   ar
    12     2     3   ar
    13     3    21    1
    14    21    22    1
    15    22    23   ar
    16    23    24   ar
    17    24    25   ar
    18    25    26   ar
    19    26    27    1
    20    26    28   ar
    21     3     4   ar
    22     4     5   ar
    23     5     6   ar
    24     6     7   ar
    25     7     8   ar
    26     8     9   ar
    27    20    14   ar
    28     9     1   ar
    29    28    22   ar
    30     9     5   ar
    31    12    13    1
@<TRIPOS>MOLECULE
*****
 28 31 0 0 0
SMALL
GASTEIGER

@<TRIPOS>ATOM
      1 C          63.9073   90.8880   12.4737 C.ar    1  UNL1        0.0912
      2 C          64.9323   91.9108   12.0824 C.ar    1  UNL1        0.0466
      3 C          65.7038   92.6423   13.1404 C.ar    1  UNL1        0.1631
      4 C          65.4504   92.3511   14.5899 C.ar    1  UNL1        0.1193
      5 N          64.4253   91.3283   14.9813 N.ar    1  UNL1       -0.2846
      6 C          63.9618   90.8329   16.3191 C.ar    1  UNL1        0.1023
      7 C          62.9037   89.7951   16.0877 C.ar    1  UNL1        0.1195
      8 N          62.7134   89.6491   14.6070 N.ar    1  UNL1       -0.2247
      9 C          63.6538   90.5967   13.9232 C.ar    1  UNL1        0.1524
     10 O          62.9906   90.7518   10.0465 O.2     1  UNL1       -0.2697
     11 C          63.1358   90.1564   11.4157 C.2     1  UNL1        0.2536
     12 N          62.5094   88.8294   11.7266 N.am    1  UNL1       -0.2657
     13 H          62.6047   88.4385   12.6252 H       1  UNL1        0.1566
     14 C          61.7379   88.0978   10.6685 C.ar    1  UNL1        0.1367
     15 C          61.9201   86.6191   10.4948 C.ar    1  UNL1        0.0346
     16 C          61.1487   85.8875    9.4366 C.ar    1  UNL1        0.0068
     17 C          60.1949   86.6347    8.5522 C.ar    1  UNL1        0.0498
     18 C          60.0127   88.1134    8.7260 C.ar    1  UNL1        0.2234
     19 F          59.0590   88.8606    7.8416 F       1  UNL1       -0.1832
     20 N          60.7842   88.8450    9.7841 N.ar    1  UNL1       -0.2029
     21 O          66.7289   93.6652   12.7490 O.3     1  UNL1       -0.4503
     22 C          66.9825   93.9563   11.2995 C.ar    1  UNL1        0.1667
     23 C          66.4583   95.2205   10.6856 C.ar    1  UNL1        0.1364
     24 N          66.7119   95.5117    9.2361 N.ar    1  UNL1       -0.2368
     25 C          67.4896   94.5385    8.4006 C.ar    1  UNL1        0.1286
     26 C          68.0138   93.2743    9.0145 C.ar    1  UNL1        0.1623
     27 F          68.7915   92.3010    8.1790 F       1  UNL1       -0.2024
     28 C          67.7602   92.9832   10.4640 C.ar    1  UNL1        0.0703
@<TRIPOS>BOND
     1    10    11    2
     2    11    12   am
     3    12    14    1
     4    14    15   ar
     5    15    16   ar
     6    16    17   ar
     7    17    18   ar
     8    18    19    1
     9    18    20   ar
    10    11     1    1
    11     1     2   ar
    12     2     3   ar
    13     3    21    1
    14    21    22    1
    15    22    23   ar
    16    23    24   ar
    17    24    25   ar
    18    25    26   ar
    19    26    27    1
    20    26    28   ar
    21     3     4   ar
    22     4     5   ar
    23     5     6   ar
    24     6     7   ar
    25     7     8   ar
    26     8     9   ar
    27    20    14   ar
    28     9     1   ar
    29    28    22   ar
    30     9     5   ar
    31    12    13    1
@<TRIPOS>MOLECULE
*****
 28 31 0 0 0
SMALL
GASTEIGER

@<TRIPOS>ATOM
      1 C          63.3821   89.7497   11.8853 C.ar    1  UNL1        0.0912
      2 C          63.8835   91.1620   11.8221 C.ar    1  UNL1        0.0466
      3 C          64.7487   91.7007   12.9225 C.ar    1  UNL1        0.1631
      4 C          65.1127   90.8271   14.0863 C.ar    1  UNL1        0.1193
      5 N          64.6113   89.4148   14.1496 N.ar    1  UNL1       -0.2846
      6 C          64.8033   88.3261   15.1635 C.ar    1  UNL1        0.1023
      7 C          64.0566   87.1146   14.6895 C.ar    1  UNL1        0.1195
      8 N          63.4032   87.4545   13.3828 N.ar    1  UNL1       -0.2247
      9 C          63.7460   88.8761   13.0491 C.ar    1  UNL1        0.1524
     10 O          61.9388   90.1426    9.7610 O.2     1  UNL1       -0.2697
     11 C          62.5168   89.2110   10.7848 C.2     1  UNL1        0.2536
     12 N          62.2295   87.7408   10.7081 N.am    1  UNL1       -0.2657
     13 H          62.6088   87.1294   11.3801 H       1  UNL1        0.1566
     14 C          61.3642   87.2022    9.6076 C.ar    1  UNL1        0.1367
     15 C          59.9366   87.6475    9.4899 C.ar    1  UNL1        0.0346
     16 C          59.0713   87.1090    8.3894 C.ar    1  UNL1        0.0068
     17 C          59.6334   86.1251    7.4066 C.ar    1  UNL1        0.0498
     18 C          61.0610   85.6798    7.5243 C.ar    1  UNL1        0.2234
     19 F          61.6231   84.6959    6.5415 F       1  UNL1       -0.1832
     20 N          61.9263   86.2183    8.6248 N.ar    1  UNL1       -0.2029
     21 O          65.2501   93.1131   12.8592 O.3     1  UNL1       -0.4503
     22 C          66.0813   93.5624   11.6942 C.ar    1  UNL1        0.1667
     23 C          66.1632   95.0198   11.3490 C.ar    1  UNL1        0.1364
     24 N          66.9944   95.4691   10.1840 N.ar    1  UNL1       -0.2368
     25 C          67.7436   94.4610    9.3641 C.ar    1  UNL1        0.1286
     26 C          67.6617   93.0035    9.7092 C.ar    1  UNL1        0.1623
     27 F          68.4109   91.9952    8.8893 F       1  UNL1       -0.2024
     28 C          66.8305   92.5542   10.8743 C.ar    1  UNL1        0.0703
@<TRIPOS>BOND
     1    10    11    2
     2    11    12   am
     3    12    14    1
     4    14    15   ar
     5    15    16   ar
     6    16    17   ar
     7    17    18   ar
     8    18    19    1
     9    18    20   ar
    10    11     1    1
    11     1     2   ar
    12     2     3   ar
    13     3    21    1
    14    21    22    1
    15    22    23   ar
    16    23    24   ar
    17    24    25   ar
    18    25    26   ar
    19    26    27    1
    20    26    28   ar
    21     3     4   ar
    22     4     5   ar
    23     5     6   ar
    24     6     7   ar
    25     7     8   ar
    26     8     9   ar
    27    20    14   ar
    28     9     1   ar
    29    28    22   ar
    30     9     5   ar
    31    12    13    1
@<TRIPOS>MOLECULE
*****
 28 31 0 0 0
SMALL
GASTEIGER

@<TRIPOS>ATOM
      1 C          61.8505   87.1463   10.3644 C.ar    1  UNL1        0.0912
      2 C          62.3703   88.4101   10.9829 C.ar    1  UNL1        0.0466
      3 C          61.8502   89.7395   10.5223 C.ar    1  UNL1        0.1631
      4 C          60.8103   89.8052    9.4432 C.ar    1  UNL1        0.1193
      5 N          60.2905   88.5413    8.8247 N.ar    1  UNL1       -0.2846
      6 C          59.2734   88.2943    7.7503 C.ar    1  UNL1        0.1023
      7 C          59.1649   86.8121    7.5469 C.ar    1  UNL1        0.1195
      8 N          60.1149   86.1432    8.4955 N.ar    1  UNL1       -0.2247
      9 C          60.8106   87.2119    9.2853 C.ar    1  UNL1        0.1524
     10 O          63.0770   84.9123    9.8591 O.2     1  UNL1       -0.2697
     11 C          62.3705   85.8169   10.8250 C.2     1  UNL1        0.2536
     12 N          62.1841   85.3919   12.2514 N.am    1  UNL1       -0.2657
     13 H          61.7204   85.9855   12.8853 H       1  UNL1        0.1566
     14 C          62.7042   84.0624   12.7119 C.ar    1  UNL1        0.1367
     15 C          63.4665   83.9606   13.9998 C.ar    1  UNL1        0.0346
     16 C          63.9866   82.6312   14.4603 C.ar    1  UNL1        0.0068
     17 C          63.7445   81.4036   13.6331 C.ar    1  UNL1        0.0498
     18 C          62.9822   81.5055   12.3452 C.ar    1  UNL1        0.2234
     19 F          62.7400   80.2779   11.5179 F       1  UNL1       -0.1832
     20 N          62.4621   82.8348   11.8846 N.ar    1  UNL1       -0.2029
     21 O          62.3701   91.0034   11.1408 O.3     1  UNL1       -0.4503
     22 C          63.3667   90.9360   12.2598 C.ar    1  UNL1        0.1667
     23 C          64.6378   91.7286   12.1809 C.ar    1  UNL1        0.1364
     24 N          65.6344   91.6612   13.2999 N.ar    1  UNL1       -0.2368
     25 C          65.3600   90.8012   14.4978 C.ar    1  UNL1        0.1286
     26 C          64.0890   90.0087   14.5768 C.ar    1  UNL1        0.1623
     27 F          63.8145   89.1486   15.7748 F       1  UNL1       -0.2024
     28 C          63.0923   90.0761   13.4578 C.ar    1  UNL1        0.0703
@<TRIPOS>BOND
     1    10    11    2
     2    11    12   am
     3    12    14    1
     4    14    15   ar
     5    15    16   ar
     6    16    17   ar
     7    17    18   ar
     8    18    19    1
     9    18    20   ar
    10    11     1    1
    11     1     2   ar
    12     2     3   ar
    13     3    21    1
    14    21    22    1
    15    22    23   ar
    16    23    24   ar
    17    24    25   ar
    18    25    26   ar
    19    26    27    1
    20    26    28   ar
    21     3     4   ar
    22     4     5   ar
    23     5     6   ar
    24     6     7   ar
    25     7     8   ar
    26     8     9   ar
    27    20    14   ar
    28     9     1   ar
    29    28    22   ar
    30     9     5   ar
    31    12    13    1
@<TRIPOS>MOLECULE
*****
 28 31 0 0 0
SMALL
GASTEIGER

@<TRIPOS>ATOM
      1 C          63.1883   88.5010   12.4523 C.ar    1  UNL1        0.0912
      2 C          63.4970   89.9072   12.8734 C.ar    1  UNL1        0.0466
      3 C          64.2016   90.1636   14.1724 C.ar    1  UNL1        0.1631
      4 C          64.5976   89.0137   15.0506 C.ar    1  UNL1        0.1193
      5 N          64.2889   87.6075   14.6295 N.ar    1  UNL1       -0.2846
      6 C          64.5546   86.2832   15.2819 C.ar    1  UNL1        0.1023
      7 C          64.0142   85.2084   14.3859 C.ar    1  UNL1        0.1195
      8 N          63.4144   85.8684   13.1798 N.ar    1  UNL1       -0.2247
      9 C          63.5843   87.3512   13.3303 C.ar    1  UNL1        0.1524
     10 O          62.4684   89.3001   10.0872 O.2     1  UNL1       -0.2697
     11 C          62.4836   88.2447   11.1531 C.2     1  UNL1        0.2536
     12 N          61.7942   86.9332   10.9199 N.am    1  UNL1       -0.2657
     13 H          61.8042   86.2405   11.6194 H       1  UNL1        0.1566
     14 C          61.0896   86.6769    9.6207 C.ar    1  UNL1        0.1367
     15 C          59.7610   87.3181    9.3489 C.ar    1  UNL1        0.0346
     16 C          59.0563   87.0620    8.0497 C.ar    1  UNL1        0.0068
     17 C          59.6801   86.1646    7.0224 C.ar    1  UNL1        0.0498
     18 C          61.0087   85.5234    7.2942 C.ar    1  UNL1        0.2234
     19 F          61.6326   84.6260    6.2668 F       1  UNL1       -0.1832
     20 N          61.7134   85.7795    8.5933 N.ar    1  UNL1       -0.2029
     21 O          64.5103   91.5698   14.5935 O.3     1  UNL1       -0.4503
     22 C          65.9347   92.0015   14.7794 C.ar    1  UNL1        0.1667
     23 C          66.3245   92.8018   15.9867 C.ar    1  UNL1        0.1364
     24 N          67.7489   93.2335   16.1726 N.ar    1  UNL1       -0.2368
     25 C          68.7837   92.8649   15.1511 C.ar    1  UNL1        0.1286
     26 C          68.3940   92.0646   13.9438 C.ar    1  UNL1        0.1623
     27 F          69.4287   91.6959   12.9223 F       1  UNL1       -0.2024
     28 C          66.9695   91.6329   13.7580 C.ar    1  UNL1        0.0703
@<TRIPOS>BOND
     1    10    11    2
     2    11    12   am
     3    12    14    1
     4    14    15   ar
     5    15    16   ar
     6    16    17   ar
     7    17    18   ar
     8    18    19    1
     9    18    20   ar
    10    11     1    1
    11     1     2   ar
    12     2     3   ar
    13     3    21    1
    14    21    22    1
    15    22    23   ar
    16    23    24   ar
    17    24    25   ar
    18    25    26   ar
    19    26    27    1
    20    26    28   ar
    21     3     4   ar
    22     4     5   ar
    23     5     6   ar
    24     6     7   ar
    25     7     8   ar
    26     8     9   ar
    27    20    14   ar
    28     9     1   ar
    29    28    22   ar
    30     9     5   ar
    31    12    13    1
@<TRIPOS>MOLECULE
*****
 28 31 0 0 0
SMALL
GASTEIGER

@<TRIPOS>ATOM
      1 C          62.1535   87.4150   11.1260 C.ar    1  UNL1        0.0912
      2 C          62.5552   88.7674   11.6355 C.ar    1  UNL1        0.0466
      3 C          62.0721   90.0050   10.9394 C.ar    1  UNL1        0.1631
      4 C          61.1872   89.8904    9.7336 C.ar    1  UNL1        0.1193
      5 N          60.7855   88.5380    9.2240 N.ar    1  UNL1       -0.2846
      6 C          59.9297   88.1149    8.0670 C.ar    1  UNL1        0.1023
      7 C          59.8840   86.6157    8.0482 C.ar    1  UNL1        0.1195
      8 N          60.7114   86.1122    9.1935 N.ar    1  UNL1       -0.2247
      9 C          61.2686   87.3003    9.9203 C.ar    1  UNL1        0.1524
     10 O          63.3842   86.2890   13.1179 O.2     1  UNL1       -0.2697
     11 C          62.6366   86.1773   11.8222 C.2     1  UNL1        0.2536
     12 N          62.3722   84.8279   11.2228 N.am    1  UNL1       -0.2657
     13 H          61.8816   84.7546   10.3724 H       1  UNL1        0.1566
     14 C          62.8554   83.5903   11.9191 C.ar    1  UNL1        0.1367
     15 C          64.2216   83.0473   11.6215 C.ar    1  UNL1        0.0346
     16 C          64.7049   81.8097   12.3177 C.ar    1  UNL1        0.0068
     17 C          63.8219   81.1150   13.3116 C.ar    1  UNL1        0.0498
     18 C          62.4556   81.6580   13.6092 C.ar    1  UNL1        0.2234
     19 F          61.5727   80.9634   14.6030 F       1  UNL1       -0.1832
     20 N          61.9724   82.8956   12.9130 N.ar    1  UNL1       -0.2029
     21 O          62.4739   91.3575   11.4490 O.3     1  UNL1       -0.4503
     22 C          63.9174   91.6558   11.7268 C.ar    1  UNL1        0.1667
     23 C          64.4831   91.4154   13.0951 C.ar    1  UNL1        0.1364
     24 N          65.9266   91.7138   13.3730 N.ar    1  UNL1       -0.2368
     25 C          66.8045   92.2525   12.2825 C.ar    1  UNL1        0.1286
     26 C          66.2388   92.4928   10.9142 C.ar    1  UNL1        0.1623
     27 F          67.1167   93.0316    9.8237 F       1  UNL1       -0.2024
     28 C          64.7953   92.1945   10.6364 C.ar    1  UNL1        0.0703
@<TRIPOS>BOND
     1    10    11    2
     2    11    12   am
     3    12    14    1
     4    14    15   ar
     5    15    16   ar
     6    16    17   ar
     7    17    18   ar
     8    18    19    1
     9    18    20   ar
    10    11     1    1
    11     1     2   ar
    12     2     3   ar
    13     3    21    1
    14    21    22    1
    15    22    23   ar
    16    23    24   ar
    17    24    25   ar
    18    25    26   ar
    19    26    27    1
    20    26    28   ar
    21     3     4   ar
    22     4     5   ar
    23     5     6   ar
    24     6     7   ar
    25     7     8   ar
    26     8     9   ar
    27    20    14   ar
    28     9     1   ar
    29    28    22   ar
    30     9     5   ar
    31    12    13    1
@<TRIPOS>MOLECULE
*****
 28 31 0 0 0
SMALL
GASTEIGER

@<TRIPOS>ATOM
      1 C          63.8348   86.7917   14.4141 C.ar    1  UNL1        0.0912
      2 C          64.1010   88.0176   13.5916 C.ar    1  UNL1        0.0466
      3 C          63.9755   89.3780   14.2107 C.ar    1  UNL1        0.1631
      4 C          63.5836   89.5127   15.6524 C.ar    1  UNL1        0.1193
      5 N          63.3174   88.2869   16.4749 N.ar    1  UNL1       -0.2846
      6 C          62.9173   88.1082   17.9095 C.ar    1  UNL1        0.1023
      7 C          62.7955   86.6372   18.1769 C.ar    1  UNL1        0.1195
      8 N          63.1204   85.9069   16.9076 N.ar    1  UNL1       -0.2247
      9 C          63.4430   86.9264   15.8557 C.ar    1  UNL1        0.1524
     10 O          65.1653   84.5851   14.0816 O.2     1  UNL1       -0.2697
     11 C          63.9603   85.4313   13.7949 C.2     1  UNL1        0.2536
     12 N          62.8810   84.9170   12.8891 N.am    1  UNL1       -0.2657
     13 H          62.0901   85.4723   12.7010 H       1  UNL1        0.1566
     14 C          63.0066   83.5565   12.2700 C.ar    1  UNL1        0.1367
     15 C          63.6378   83.4032   10.9179 C.ar    1  UNL1        0.0346
     16 C          63.7634   82.0428   10.2987 C.ar    1  UNL1        0.0068
     17 C          63.2580   80.8356   11.0316 C.ar    1  UNL1        0.0498
     18 C          62.6268   80.9889   12.3837 C.ar    1  UNL1        0.2234
     19 F          62.1213   79.7817   13.1166 F       1  UNL1       -0.1832
     20 N          62.5011   82.3493   13.0029 N.ar    1  UNL1       -0.2029
     21 O          64.2418   90.6038   13.3882 O.3     1  UNL1       -0.4503
     22 C          65.3535   91.5359   13.7694 C.ar    1  UNL1        0.1667
     23 C          65.6670   92.7219   12.9063 C.ar    1  UNL1        0.1364
     24 N          66.7788   93.6540   13.2875 N.ar    1  UNL1       -0.2368
     25 C          67.5771   93.3999   14.5318 C.ar    1  UNL1        0.1286
     26 C          67.2635   92.2139   15.3949 C.ar    1  UNL1        0.1623
     27 F          68.0618   91.9597   16.6392 F       1  UNL1       -0.2024
     28 C          66.1518   91.2818   15.0137 C.ar    1  UNL1        0.0703
@<TRIPOS>BOND
     1    10    11    2
     2    11    12   am
     3    12    14    1
     4    14    15   ar
     5    15    16   ar
     6    16    17   ar
     7    17    18   ar
     8    18    19    1
     9    18    20   ar
    10    11     1    1
    11     1     2   ar
    12     2     3   ar
    13     3    21    1
    14    21    22    1
    15    22    23   ar
    16    23    24   ar
    17    24    25   ar
    18    25    26   ar
    19    26    27    1
    20    26    28   ar
    21     3     4   ar
    22     4     5   ar
    23     5     6   ar
    24     6     7   ar
    25     7     8   ar
    26     8     9   ar
    27    20    14   ar
    28     9     1   ar
    29    28    22   ar
    30     9     5   ar
    31    12    13    1
@<TRIPOS>MOLECULE
*****
 28 31 0 0 0
SMALL
GASTEIGER

@<TRIPOS>ATOM
      1 C          62.9755   88.2313   12.2856 C.ar    1  UNL1        0.0912
      2 C          63.2466   86.7712   12.0743 C.ar    1  UNL1        0.0466
      3 C          62.3904   85.9782   11.1320 C.ar    1  UNL1        0.1631
      4 C          61.2632   86.6452   10.4009 C.ar    1  UNL1        0.1193
      5 N          60.9921   88.1053   10.6122 N.ar    1  UNL1       -0.2846
      6 C          59.9598   89.0282   10.0357 C.ar    1  UNL1        0.1023
      7 C          60.1779   90.3917   10.6217 C.ar    1  UNL1        0.1195
      8 N          61.3451   90.3114   11.5605 N.ar    1  UNL1       -0.2247
      9 C          61.8483   88.8983   11.5546 C.ar    1  UNL1        0.1524
     10 O          64.3752   88.3810   14.4694 O.2     1  UNL1       -0.2697
     11 C          63.8317   89.0243   13.2280 C.2     1  UNL1        0.2536
     12 N          64.1445   90.4605   12.9290 N.am    1  UNL1       -0.2657
     13 H          63.7879   90.8827   12.1143 H       1  UNL1        0.1566
     14 C          65.0007   91.2535   13.8715 C.ar    1  UNL1        0.1367
     15 C          66.3612   91.7155   13.4404 C.ar    1  UNL1        0.0346
     16 C          67.2174   92.5085   14.3828 C.ar    1  UNL1        0.0068
     17 C          66.7133   92.8394   15.7562 C.ar    1  UNL1        0.0498
     18 C          65.3528   92.3773   16.1872 C.ar    1  UNL1        0.2234
     19 F          64.8487   92.7083   17.5607 F       1  UNL1       -0.1832
     20 N          64.4966   91.5844   15.2449 N.ar    1  UNL1       -0.2029
     21 O          62.6615   84.5180   10.9206 O.3     1  UNL1       -0.4503
     22 C          62.5559   83.5614   12.0711 C.ar    1  UNL1        0.1667
     23 C          62.4549   84.0834   13.4737 C.ar    1  UNL1        0.1364
     24 N          62.3493   83.1268   14.6242 N.ar    1  UNL1       -0.2368
     25 C          62.3447   81.6481   14.3722 C.ar    1  UNL1        0.1286
     26 C          62.4458   81.1261   12.9696 C.ar    1  UNL1        0.1623
     27 F          62.4412   79.6474   12.7174 F       1  UNL1       -0.2024
     28 C          62.5514   82.0828   11.8190 C.ar    1  UNL1        0.0703
@<TRIPOS>BOND
     1    10    11    2
     2    11    12   am
     3    12    14    1
     4    14    15   ar
     5    15    16   ar
     6    16    17   ar
     7    17    18   ar
     8    18    19    1
     9    18    20   ar
    10    11     1    1
    11     1     2   ar
    12     2     3   ar
    13     3    21    1
    14    21    22    1
    15    22    23   ar
    16    23    24   ar
    17    24    25   ar
    18    25    26   ar
    19    26    27    1
    20    26    28   ar
    21     3     4   ar
    22     4     5   ar
    23     5     6   ar
    24     6     7   ar
    25     7     8   ar
    26     8     9   ar
    27    20    14   ar
    28     9     1   ar
    29    28    22   ar
    30     9     5   ar
    31    12    13    1
@<TRIPOS>MOLECULE
*****
 28 31 0 0 0
SMALL
GASTEIGER

@<TRIPOS>ATOM
      1 C          63.2494   87.7931   12.5687 C.ar    1  UNL1        0.0912
      2 C          63.5301   89.2040   12.9934 C.ar    1  UNL1        0.0466
      3 C          64.0839   89.4798   14.3598 C.ar    1  UNL1        0.1631
      4 C          64.3570   88.3447   15.3016 C.ar    1  UNL1        0.1193
      5 N          64.0763   86.9337   14.8769 N.ar    1  UNL1       -0.2846
      6 C          64.2433   85.6209   15.5830 C.ar    1  UNL1        0.1023
      7 C          63.7926   84.5338   14.6530 C.ar    1  UNL1        0.1195
      8 N          63.3471   85.1746   13.3720 N.ar    1  UNL1       -0.2247
      9 C          63.5225   86.6579   13.5104 C.ar    1  UNL1        0.1524
     10 O          62.2637   88.6544   10.3244 O.2     1  UNL1       -0.2697
     11 C          62.6956   87.5173   11.2022 C.2     1  UNL1        0.2536
     12 N          62.5736   86.1044   10.7135 N.am    1  UNL1       -0.2657
     13 H          62.8570   85.3580   11.2896 H       1  UNL1        0.1566
     14 C          62.0197   85.8286    9.3470 C.ar    1  UNL1        0.1367
     15 C          62.8666   85.1371    8.3201 C.ar    1  UNL1        0.0346
     16 C          62.3128   84.8613    6.9536 C.ar    1  UNL1        0.0068
     17 C          60.9122   85.2772    6.6140 C.ar    1  UNL1        0.0498
     18 C          60.0653   85.9687    7.6410 C.ar    1  UNL1        0.2234
     19 F          58.6647   86.3846    7.3014 F       1  UNL1       -0.1832
     20 N          60.6191   86.2445    9.0074 N.ar    1  UNL1       -0.2029
     21 O          64.3647   90.8908   14.7845 O.3     1  UNL1       -0.4503
     22 C          65.1525   91.8009   13.8894 C.ar    1  UNL1        0.1667
     23 C          66.3217   92.5640   14.4375 C.ar    1  UNL1        0.1364
     24 N          67.1096   93.4740   13.5424 N.ar    1  UNL1       -0.2368
     25 C          66.7281   93.6209   12.0992 C.ar    1  UNL1        0.1286
     26 C          65.5589   92.8577   11.5510 C.ar    1  UNL1        0.1623
     27 F          65.1773   93.0045   10.1078 F       1  UNL1       -0.2024
     28 C          64.7711   91.9477   12.4462 C.ar    1  UNL1        0.0703
@<TRIPOS>BOND
     1    10    11    2
     2    11    12   am
     3    12    14    1
     4    14    15   ar
     5    15    16   ar
     6    16    17   ar
     7    17    18   ar
     8    18    19    1
     9    18    20   ar
    10    11     1    1
    11     1     2   ar
    12     2     3   ar
    13     3    21    1
    14    21    22    1
    15    22    23   ar
    16    23    24   ar
    17    24    25   ar
    18    25    26   ar
    19    26    27    1
    20    26    28   ar
    21     3     4   ar
    22     4     5   ar
    23     5     6   ar
    24     6     7   ar
    25     7     8   ar
    26     8     9   ar
    27    20    14   ar
    28     9     1   ar
    29    28    22   ar
    30     9     5   ar
    31    12    13    1
