@<TRIPOS>MOLECULE
*****
 29 32 0 0 0
SMALL
GASTEIGER

@<TRIPOS>ATOM
      1 C          62.1837   88.2268   11.5858 C.2     1  UNL1        0.3239
      2 N          62.6818   86.9512   12.1978 N.2     1  UNL1       -0.0410
      3 C          62.3850   85.6370   11.5384 C.2     1  UNL1        0.2078
      4 C          61.5900   85.5985   10.2670 C.2     1  UNL1        0.0458
      5 C          61.0919   86.8741    9.6549 C.2     1  UNL1        0.0124
      6 C          60.2901   87.1473    8.4170 C.2     1  UNL1       -0.0101
      7 C          59.7771   86.1181    7.4539 C.3     1  UNL1        0.0320
      8 C          60.0914   88.6303    8.3113 C.2     1  UNL1        0.0509
      9 C          59.3448   89.3446    7.2238 C.3     1  UNL1        0.0513
     10 N          60.7704   89.2737    9.4839 N.2     1  UNL1       -0.2603
     11 C          61.3887   88.1882   10.3143 C.3     1  UNL1        0.2295
     12 C          62.8832   84.3613   12.1504 C.2     1  UNL1        0.1159
     13 C          63.0119   83.1261   11.3091 C.2     1  UNL1        0.0163
     14 C          63.5100   81.8505   11.9211 C.2     1  UNL1       -0.0150
     15 C          63.8795   81.8100   13.3744 C.3     1  UNL1        0.1132
     16 C          63.7508   83.0452   14.2156 C.2     1  UNL1        0.2501
     17 O          64.1203   83.0047   15.6688 O.2     1  UNL1       -0.2726
     18 N          63.2526   84.3209   13.6036 N.am    1  UNL1       -0.1752
     19 N          62.4805   89.5410   12.2452 N.pl3   1  UNL1       -0.2167
     20 H          61.9839   89.8105   13.0514 H       1  UNL1        0.2923
     21 C          63.5340   90.4446   11.6761 C.3     1  UNL1        0.2258
     22 C          65.0430   92.8443   10.6942 C.3     1  UNL1        0.0308
     23 C          65.2369   92.3603   12.1006 C.ar    1  UNL1       -0.0223
     24 C          66.1853   93.0761   13.0161 C.ar    1  UNL1       -0.0045
     25 C          66.3792   92.5921   14.4226 C.ar    1  UNL1       -0.0007
     26 C          65.6246   91.3923   14.9136 C.ar    1  UNL1       -0.0045
     27 C          64.6762   90.6765   13.9981 C.ar    1  UNL1       -0.0223
     28 C          63.9217   89.4766   14.4891 C.3     1  UNL1        0.0308
     29 C          64.4823   91.1605   12.5916 C.ar    1  UNL1        0.0162
@<TRIPOS>BOND
     1    22    23    1
     2    23    24   ar
     3    24    25   ar
     4    25    26   ar
     5    26    27   ar
     6    27    28    1
     7    27    29   ar
     8    29    21    1
     9    21    19    1
    10    19     1    1
    11     1     2    2
    12     2     3    1
    13     3    12    1
    14    12    13    1
    15    13    14    2
    16    14    15    1
    17    15    16    1
    18    16    17    2
    19    16    18    1
    20     3     4    2
    21     4     5    1
    22     5     6    2
    23     6     7    1
    24     6     8    1
    25     8     9    1
    26     8    10    2
    27    10    11    1
    28    29    23   ar
    29    11     1    1
    30    18    12    2
    31    11     5    1
    32    19    20    1
@<TRIPOS>MOLECULE
*****
 29 32 0 0 0
SMALL
GASTEIGER

@<TRIPOS>ATOM
      1 C          62.1771   88.2244   11.5780 C.2     1  UNL1        0.3239
      2 N          62.6719   86.9479   12.1909 N.2     1  UNL1       -0.0410
      3 C          62.3763   85.6345   11.5296 C.2     1  UNL1        0.2078
      4 C          61.5859   85.5975   10.2553 C.2     1  UNL1        0.0458
      5 C          61.0911   86.8739    9.6423 C.2     1  UNL1        0.0124
      6 C          60.2941   87.1486    8.4016 C.2     1  UNL1       -0.0101
      7 C          59.7837   86.1206    7.4360 C.3     1  UNL1        0.0320
      8 C          60.0970   88.6319    8.2962 C.2     1  UNL1        0.0509
      9 C          59.3550   89.3475    7.2065 C.3     1  UNL1        0.0513
     10 N          60.7723   89.2739    9.4717 N.2     1  UNL1       -0.2603
     11 C          61.3867   88.1874   10.3036 C.3     1  UNL1        0.2295
     12 C          62.8711   84.3579   12.1426 C.2     1  UNL1        0.1159
     13 C          62.9737   83.1157   11.3081 C.2     1  UNL1        0.0163
     14 C          63.4684   81.8392   11.9210 C.2     1  UNL1       -0.0150
     15 C          63.8607   81.8049   13.3685 C.3     1  UNL1        0.1132
     16 C          63.7581   83.0471   14.2030 C.2     1  UNL1        0.2501
     17 O          64.1503   83.0128   15.6503 O.2     1  UNL1       -0.2726
     18 N          63.2633   84.3236   13.5900 N.am    1  UNL1       -0.1752
     19 N          62.4727   89.5379   12.2393 N.pl3   1  UNL1       -0.2167
     20 H          61.9707   89.8091   13.0416 H       1  UNL1        0.2923
     21 C          63.5330   90.4383   11.6781 C.3     1  UNL1        0.2258
     22 C          63.8471   89.5401   14.5232 C.3     1  UNL1        0.0308
     23 C          64.6094   90.7318   14.0244 C.ar    1  UNL1       -0.0223
     24 C          65.5287   91.4745   14.9482 C.ar    1  UNL1       -0.0045
     25 C          66.2910   92.6661   14.4495 C.ar    1  UNL1       -0.0007
     26 C          66.1339   93.1152   13.0269 C.ar    1  UNL1       -0.0045
     27 C          65.2146   92.3726   12.1031 C.ar    1  UNL1       -0.0223
     28 C          65.0576   92.8217   10.6806 C.3     1  UNL1        0.0308
     29 C          64.4523   91.1809   12.6019 C.ar    1  UNL1        0.0162
@<TRIPOS>BOND
     1    22    23    1
     2    23    24   ar
     3    24    25   ar
     4    25    26   ar
     5    26    27   ar
     6    27    28    1
     7    27    29   ar
     8    29    21    1
     9    21    19    1
    10    19     1    1
    11     1     2    2
    12     2     3    1
    13     3    12    1
    14    12    13    1
    15    13    14    2
    16    14    15    1
    17    15    16    1
    18    16    17    2
    19    16    18    1
    20     3     4    2
    21     4     5    1
    22     5     6    2
    23     6     7    1
    24     6     8    1
    25     8     9    1
    26     8    10    2
    27    10    11    1
    28    29    23   ar
    29    11     1    1
    30    18    12    2
    31    11     5    1
    32    19    20    1
@<TRIPOS>MOLECULE
*****
 29 32 0 0 0
SMALL
GASTEIGER

@<TRIPOS>ATOM
      1 C          62.2727   86.9350   12.0185 C.2     1  UNL1        0.3239
      2 N          63.1520   88.0058   12.5930 N.2     1  UNL1       -0.0410
      3 C          63.1932   89.3637   11.9570 C.2     1  UNL1        0.2078
      4 C          62.3551   89.6507   10.7465 C.2     1  UNL1        0.0458
      5 C          61.4758   88.5798   10.1721 C.2     1  UNL1        0.0124
      6 C          60.5455   88.5690    8.9954 C.2     1  UNL1       -0.0101
      7 C          60.2784   89.7205    8.0721 C.3     1  UNL1        0.0320
      8 C          59.9294   87.2044    8.9042 C.2     1  UNL1        0.0509
      9 C          58.9378   86.7519    7.8736 C.3     1  UNL1        0.0513
     10 N          60.4788   86.3719   10.0245 N.2     1  UNL1       -0.2603
     11 C          61.4346   87.2220   10.8080 C.3     1  UNL1        0.2295
     12 C          64.0726   90.4346   12.5315 C.2     1  UNL1        0.1159
     13 C          64.5733   90.3180   13.9406 C.2     1  UNL1        0.0163
     14 C          65.4526   91.3888   14.5151 C.2     1  UNL1       -0.0150
     15 C          65.8312   92.5763   13.6805 C.3     1  UNL1        0.1132
     16 C          65.3305   92.6929   12.2713 C.2     1  UNL1        0.2501
     17 O          65.7090   93.8803   11.4367 O.2     1  UNL1       -0.2726
     18 N          64.4511   91.6220   11.6968 N.am    1  UNL1       -0.1752
     19 N          62.2314   85.5771   12.6545 N.pl3   1  UNL1       -0.2167
     20 H          61.4298   85.2888   13.1480 H       1  UNL1        0.2923
     21 C          63.4115   84.6584   12.5386 C.3     1  UNL1        0.2258
     22 C          63.9185   83.3650    9.8796 C.3     1  UNL1        0.0308
     23 C          63.4533   82.5364   11.0402 C.ar    1  UNL1       -0.0223
     24 C          63.2415   81.0610   10.8713 C.ar    1  UNL1       -0.0045
     25 C          62.7763   80.2324   12.0319 C.ar    1  UNL1       -0.0007
     26 C          62.5228   80.8791   13.3613 C.ar    1  UNL1       -0.0045
     27 C          62.7345   82.3544   13.5303 C.ar    1  UNL1       -0.0223
     28 C          62.4810   83.0011   14.8597 C.3     1  UNL1        0.0308
     29 C          63.1998   83.1831   12.3697 C.ar    1  UNL1        0.0162
@<TRIPOS>BOND
     1    22    23    1
     2    23    24   ar
     3    24    25   ar
     4    25    26   ar
     5    26    27   ar
     6    27    28    1
     7    27    29   ar
     8    29    21    1
     9    21    19    1
    10    19     1    1
    11     1     2    2
    12     2     3    1
    13     3    12    1
    14    12    13    1
    15    13    14    2
    16    14    15    1
    17    15    16    1
    18    16    17    2
    19    16    18    1
    20     3     4    2
    21     4     5    1
    22     5     6    2
    23     6     7    1
    24     6     8    1
    25     8     9    1
    26     8    10    2
    27    10    11    1
    28    29    23   ar
    29    11     1    1
    30    18    12    2
    31    11     5    1
    32    19    20    1
@<TRIPOS>MOLECULE
*****
 29 32 0 0 0
SMALL
GASTEIGER

@<TRIPOS>ATOM
      1 C          62.2747   86.9429   12.0097 C.2     1  UNL1        0.3239
      2 N          63.1536   88.0134   12.5854 N.2     1  UNL1       -0.0410
      3 C          63.1951   89.3717   11.9504 C.2     1  UNL1        0.2078
      4 C          62.3575   89.6595   10.7398 C.2     1  UNL1        0.0458
      5 C          61.4786   88.5890   10.1641 C.2     1  UNL1        0.0124
      6 C          60.5489   88.5790    8.9870 C.2     1  UNL1       -0.0101
      7 C          60.2821   89.7312    8.0644 C.3     1  UNL1        0.0320
      8 C          59.9328   87.2144    8.8945 C.2     1  UNL1        0.0509
      9 C          58.9418   86.7626    7.8631 C.3     1  UNL1        0.0513
     10 N          60.4818   86.3811   10.0144 N.2     1  UNL1       -0.2603
     11 C          61.4372   87.2307   10.7991 C.3     1  UNL1        0.2295
     12 C          64.0740   90.4423   12.5261 C.2     1  UNL1        0.1159
     13 C          64.5752   90.3241   13.9350 C.2     1  UNL1        0.0163
     14 C          65.4541   91.3946   14.5107 C.2     1  UNL1       -0.0150
     15 C          65.8320   92.5834   13.6775 C.3     1  UNL1        0.1132
     16 C          65.3308   92.7016   12.2686 C.2     1  UNL1        0.2501
     17 O          65.7087   93.8902   11.4354 O.2     1  UNL1       -0.2726
     18 N          64.4519   91.6310   11.6929 N.am    1  UNL1       -0.1752
     19 N          62.2332   85.5845   12.6447 N.pl3   1  UNL1       -0.2167
     20 H          61.4316   85.2961   13.1381 H       1  UNL1        0.2923
     21 C          63.4131   84.6657   12.5279 C.3     1  UNL1        0.2258
     22 C          62.4894   83.0222   14.8615 C.3     1  UNL1        0.0308
     23 C          62.7393   82.3676   13.5352 C.ar    1  UNL1       -0.0223
     24 C          62.5273   80.8912   13.3757 C.ar    1  UNL1       -0.0045
     25 C          62.7773   80.2367   12.0494 C.ar    1  UNL1       -0.0007
     26 C          63.2391   81.0585   10.8826 C.ar    1  UNL1       -0.0045
     27 C          63.4511   82.5348   11.0421 C.ar    1  UNL1       -0.0223
     28 C          63.9130   83.3566    9.8753 C.3     1  UNL1        0.0308
     29 C          63.2012   83.1894   12.3684 C.ar    1  UNL1        0.0162
@<TRIPOS>BOND
     1    22    23    1
     2    23    24   ar
     3    24    25   ar
     4    25    26   ar
     5    26    27   ar
     6    27    28    1
     7    27    29   ar
     8    29    21    1
     9    21    19    1
    10    19     1    1
    11     1     2    2
    12     2     3    1
    13     3    12    1
    14    12    13    1
    15    13    14    2
    16    14    15    1
    17    15    16    1
    18    16    17    2
    19    16    18    1
    20     3     4    2
    21     4     5    1
    22     5     6    2
    23     6     7    1
    24     6     8    1
    25     8     9    1
    26     8    10    2
    27    10    11    1
    28    29    23   ar
    29    11     1    1
    30    18    12    2
    31    11     5    1
    32    19    20    1
@<TRIPOS>MOLECULE
*****
 29 32 0 0 0
SMALL
GASTEIGER

@<TRIPOS>ATOM
      1 C          63.2716   90.3132   11.6278 C.2     1  UNL1        0.3239
      2 N          63.0684   89.3178   12.7313 N.2     1  UNL1       -0.0410
      3 C          63.8449   89.4450   14.0083 C.2     1  UNL1        0.2078
      4 C          64.8246   90.5676   14.1818 C.2     1  UNL1        0.0458
      5 C          65.0278   91.5630   13.0782 C.2     1  UNL1        0.0124
      6 C          65.9172   92.7652   12.9621 C.2     1  UNL1       -0.0101
      7 C          66.8667   93.2640   14.0107 C.3     1  UNL1        0.0320
      8 C          65.6904   93.3811   11.6133 C.2     1  UNL1        0.0509
      9 C          66.3734   94.6039   11.0763 C.3     1  UNL1        0.0513
     10 N          64.6608   92.5595   10.8958 N.2     1  UNL1       -0.2603
     11 C          64.2513   91.4358   11.8012 C.3     1  UNL1        0.2295
     12 C          63.6417   88.4496   15.1120 C.2     1  UNL1        0.1159
     13 C          63.1528   88.9073   16.4542 C.2     1  UNL1        0.0163
     14 C          62.9496   87.9120   17.5578 C.2     1  UNL1       -0.0150
     15 C          63.2354   86.4589   17.3193 C.3     1  UNL1        0.1132
     16 C          63.7244   86.0012   15.9771 C.2     1  UNL1        0.2501
     17 O          64.0102   84.5481   15.7385 O.2     1  UNL1       -0.2726
     18 N          63.9276   86.9966   14.8734 N.am    1  UNL1       -0.1752
     19 N          62.4951   90.1861   10.3507 N.pl3   1  UNL1       -0.2167
     20 H          62.8736   90.5272    9.5083 H       1  UNL1        0.2923
     21 C          61.1418   89.5391   10.3570 C.3     1  UNL1        0.2258
     22 C          62.2560   86.8633   11.1305 C.3     1  UNL1        0.0308
     23 C          61.4368   87.0020    9.8817 C.ar    1  UNL1       -0.0223
     24 C          61.1747   85.8028    9.0195 C.ar    1  UNL1       -0.0045
     25 C          60.3555   85.9415    7.7707 C.ar    1  UNL1       -0.0007
     26 C          59.7984   87.2794    7.3839 C.ar    1  UNL1       -0.0045
     27 C          60.0605   88.4786    8.2460 C.ar    1  UNL1       -0.0223
     28 C          59.5034   89.8165    7.8593 C.3     1  UNL1        0.0308
     29 C          60.8797   88.3399    9.4949 C.ar    1  UNL1        0.0162
@<TRIPOS>BOND
     1    22    23    1
     2    23    24   ar
     3    24    25   ar
     4    25    26   ar
     5    26    27   ar
     6    27    28    1
     7    27    29   ar
     8    29    21    1
     9    21    19    1
    10    19     1    1
    11     1     2    2
    12     2     3    1
    13     3    12    1
    14    12    13    1
    15    13    14    2
    16    14    15    1
    17    15    16    1
    18    16    17    2
    19    16    18    1
    20     3     4    2
    21     4     5    1
    22     5     6    2
    23     6     7    1
    24     6     8    1
    25     8     9    1
    26     8    10    2
    27    10    11    1
    28    29    23   ar
    29    11     1    1
    30    18    12    2
    31    11     5    1
    32    19    20    1
@<TRIPOS>MOLECULE
*****
 29 32 0 0 0
SMALL
GASTEIGER

@<TRIPOS>ATOM
      1 C          63.5791   87.0385   13.5778 C.2     1  UNL1        0.3239
      2 N          64.2765   88.1328   14.3302 N.2     1  UNL1       -0.0410
      3 C          64.2318   89.5417   13.8175 C.2     1  UNL1        0.2078
      4 C          63.4896   89.8563   12.5526 C.2     1  UNL1        0.0458
      5 C          62.7922   88.7621   11.8002 C.2     1  UNL1        0.0124
      6 C          61.9879   88.7693   10.5341 C.2     1  UNL1       -0.0101
      7 C          61.6885   89.9702    9.6867 C.3     1  UNL1        0.0320
      8 C          61.5355   87.3648   10.2643 C.2     1  UNL1        0.0509
      9 C          60.7043   86.9147    9.0995 C.3     1  UNL1        0.0513
     10 N          62.0602   86.4895   11.3636 N.2     1  UNL1       -0.2603
     11 C          62.8369   87.3531   12.3129 C.3     1  UNL1        0.2295
     12 C          64.9293   90.6361   14.5699 C.2     1  UNL1        0.1159
     13 C          64.3116   91.2025   15.8139 C.2     1  UNL1        0.0163
     14 C          65.0090   92.2968   16.5663 C.2     1  UNL1       -0.0150
     15 C          66.3241   92.8248   16.0746 C.3     1  UNL1        0.1132
     16 C          66.9418   92.2584   14.8305 C.2     1  UNL1        0.2501
     17 O          68.2569   92.7863   14.3388 O.2     1  UNL1       -0.2726
     18 N          66.2444   91.1640   14.0782 N.am    1  UNL1       -0.1752
     19 N          63.6238   85.6294   14.0905 N.pl3   1  UNL1       -0.2167
     20 H          63.2531   85.4162   14.9772 H       1  UNL1        0.2923
     21 C          64.2333   84.5453   13.2519 C.3     1  UNL1        0.2258
     22 C          62.6793   83.4494   15.5723 C.3     1  UNL1        0.0308
     23 C          62.7752   82.6659   14.2968 C.ar    1  UNL1       -0.0223
     24 C          62.0941   81.3344   14.1815 C.ar    1  UNL1       -0.0045
     25 C          62.1900   80.5509   12.9060 C.ar    1  UNL1       -0.0007
     26 C          62.9671   81.0988   11.7458 C.ar    1  UNL1       -0.0045
     27 C          63.6482   82.4303   11.8611 C.ar    1  UNL1       -0.0223
     28 C          64.4252   82.9782   10.7010 C.3     1  UNL1        0.0308
     29 C          63.5522   83.2139   13.1366 C.ar    1  UNL1        0.0162
@<TRIPOS>BOND
     1    22    23    1
     2    23    24   ar
     3    24    25   ar
     4    25    26   ar
     5    26    27   ar
     6    27    28    1
     7    27    29   ar
     8    29    21    1
     9    21    19    1
    10    19     1    1
    11     1     2    2
    12     2     3    1
    13     3    12    1
    14    12    13    1
    15    13    14    2
    16    14    15    1
    17    15    16    1
    18    16    17    2
    19    16    18    1
    20     3     4    2
    21     4     5    1
    22     5     6    2
    23     6     7    1
    24     6     8    1
    25     8     9    1
    26     8    10    2
    27    10    11    1
    28    29    23   ar
    29    11     1    1
    30    18    12    2
    31    11     5    1
    32    19    20    1
@<TRIPOS>MOLECULE
*****
 29 32 0 0 0
SMALL
GASTEIGER

@<TRIPOS>ATOM
      1 C          63.5805   87.1003   13.5804 C.2     1  UNL1        0.3239
      2 N          64.3196   88.1649   14.3356 N.2     1  UNL1       -0.0410
      3 C          64.3128   89.5797   13.8374 C.2     1  UNL1        0.2078
      4 C          63.5670   89.9299   12.5839 C.2     1  UNL1        0.0458
      5 C          62.8279   88.8653   11.8287 C.2     1  UNL1        0.0124
      6 C          62.0105   88.9102   10.5718 C.2     1  UNL1       -0.0101
      7 C          61.7391   90.1283    9.7397 C.3     1  UNL1        0.0320
      8 C          61.5120   87.5231   10.2933 C.2     1  UNL1        0.0509
      9 C          60.6547   87.1107    9.1335 C.3     1  UNL1        0.0513
     10 N          62.0214   86.6210   11.3780 N.2     1  UNL1       -0.2603
     11 C          62.8347   87.4505   12.3270 C.3     1  UNL1        0.2295
     12 C          65.0519   90.6444   14.5926 C.2     1  UNL1        0.1159
     13 C          66.4723   90.9682   14.2357 C.2     1  UNL1        0.0163
     14 C          67.2114   92.0328   14.9908 C.2     1  UNL1       -0.0150
     15 C          66.5300   92.7737   16.1030 C.3     1  UNL1        0.1132
     16 C          65.1095   92.4499   16.4599 C.2     1  UNL1        0.2501
     17 O          64.4281   93.1908   17.5720 O.2     1  UNL1       -0.2726
     18 N          64.3705   91.3852   15.7047 N.am    1  UNL1       -0.1752
     19 N          63.5873   85.6855   14.0786 N.pl3   1  UNL1       -0.2167
     20 H          63.1831   85.4684   14.9497 H       1  UNL1        0.2923
     21 C          64.2098   84.6014   13.2496 C.3     1  UNL1        0.2258
     22 C          64.4049   83.0312   10.7008 C.3     1  UNL1        0.0308
     23 C          63.6383   82.4783   11.8655 C.ar    1  UNL1       -0.0223
     24 C          62.9693   81.1402   11.7558 C.ar    1  UNL1       -0.0045
     25 C          62.2026   80.5873   12.9204 C.ar    1  UNL1       -0.0007
     26 C          62.1050   81.3724   14.1949 C.ar    1  UNL1       -0.0045
     27 C          62.7741   82.7104   14.3046 C.ar    1  UNL1       -0.0223
     28 C          62.6765   83.4955   15.5790 C.3     1  UNL1        0.0308
     29 C          63.5407   83.2634   13.1399 C.ar    1  UNL1        0.0162
@<TRIPOS>BOND
     1    22    23    1
     2    23    24   ar
     3    24    25   ar
     4    25    26   ar
     5    26    27   ar
     6    27    28    1
     7    27    29   ar
     8    29    21    1
     9    21    19    1
    10    19     1    1
    11     1     2    2
    12     2     3    1
    13     3    12    1
    14    12    13    1
    15    13    14    2
    16    14    15    1
    17    15    16    1
    18    16    17    2
    19    16    18    1
    20     3     4    2
    21     4     5    1
    22     5     6    2
    23     6     7    1
    24     6     8    1
    25     8     9    1
    26     8    10    2
    27    10    11    1
    28    29    23   ar
    29    11     1    1
    30    18    12    2
    31    11     5    1
    32    19    20    1
@<TRIPOS>MOLECULE
*****
 29 32 0 0 0
SMALL
GASTEIGER

@<TRIPOS>ATOM
      1 C          63.1813   87.7217   12.6422 C.2     1  UNL1        0.3239
      2 N          62.3490   88.0216   11.4309 N.2     1  UNL1       -0.0410
      3 C          61.7008   86.9027   10.6707 C.2     1  UNL1        0.2078
      4 C          61.8849   85.4841   11.1217 C.2     1  UNL1        0.0458
      5 C          62.7172   85.1842   12.3330 C.2     1  UNL1        0.0124
      6 C          63.0750   83.8949   13.0109 C.2     1  UNL1       -0.0101
      7 C          62.6398   82.5242   12.5844 C.3     1  UNL1        0.0320
      8 C          63.9443   84.2168   14.1902 C.2     1  UNL1        0.0509
      9 C          64.5311   83.2246   15.1500 C.3     1  UNL1        0.0513
     10 N          64.1238   85.7052   14.2411 N.2     1  UNL1       -0.2603
     11 C          63.3654   86.3030   13.0933 C.3     1  UNL1        0.2295
     12 C          60.8685   87.2026    9.4593 C.2     1  UNL1        0.1159
     13 C          60.2880   86.0798    8.6515 C.2     1  UNL1        0.0163
     14 C          59.4557   86.3796    7.4402 C.2     1  UNL1       -0.0150
     15 C          59.2039   87.8022    7.0365 C.3     1  UNL1        0.1132
     16 C          59.7843   88.9249    7.8443 C.2     1  UNL1        0.2501
     17 O          59.5325   90.3475    7.4407 O.2     1  UNL1       -0.2726
     18 N          60.6167   88.6251    9.0557 N.am    1  UNL1       -0.1752
     19 N          63.8295   88.8406   13.4026 N.pl3   1  UNL1       -0.2167
     20 H          64.5473   88.6462   14.0477 H       1  UNL1        0.2923
     21 C          63.3841   90.2555   13.1799 C.3     1  UNL1        0.2258
     22 C          65.5244   91.3868   14.9516 C.3     1  UNL1        0.0308
     23 C          65.4183   91.8345   13.5239 C.ar    1  UNL1       -0.0223
     24 C          66.3825   92.8479   12.9820 C.ar    1  UNL1       -0.0045
     25 C          66.2764   93.2955   11.5543 C.ar    1  UNL1       -0.0007
     26 C          65.2062   92.7298   10.6684 C.ar    1  UNL1       -0.0045
     27 C          64.2421   91.7165   11.2103 C.ar    1  UNL1       -0.0223
     28 C          63.1719   91.1508   10.3244 C.3     1  UNL1        0.0308
     29 C          64.3482   91.2688   12.6380 C.ar    1  UNL1        0.0162
@<TRIPOS>BOND
     1    22    23    1
     2    23    24   ar
     3    24    25   ar
     4    25    26   ar
     5    26    27   ar
     6    27    28    1
     7    27    29   ar
     8    29    21    1
     9    21    19    1
    10    19     1    1
    11     1     2    2
    12     2     3    1
    13     3    12    1
    14    12    13    1
    15    13    14    2
    16    14    15    1
    17    15    16    1
    18    16    17    2
    19    16    18    1
    20     3     4    2
    21     4     5    1
    22     5     6    2
    23     6     7    1
    24     6     8    1
    25     8     9    1
    26     8    10    2
    27    10    11    1
    28    29    23   ar
    29    11     1    1
    30    18    12    2
    31    11     5    1
    32    19    20    1
@<TRIPOS>MOLECULE
*****
 29 32 0 0 0
SMALL
GASTEIGER

@<TRIPOS>ATOM
      1 C          63.4197   87.9782   12.9654 C.2     1  UNL1        0.3239
      2 N          62.5688   88.3579   11.7899 N.2     1  UNL1       -0.0410
      3 C          61.8670   87.2950   10.9977 C.2     1  UNL1        0.2078
      4 C          62.0160   85.8525   11.3810 C.2     1  UNL1        0.0458
      5 C          62.8669   85.4728   12.5565 C.2     1  UNL1        0.0124
      6 C          63.1991   84.1439   13.1676 C.2     1  UNL1       -0.0101
      7 C          62.7100   82.8079   12.6922 C.3     1  UNL1        0.0320
      8 C          64.1063   84.3854   14.3375 C.2     1  UNL1        0.0509
      9 C          64.6837   83.3333   15.2374 C.3     1  UNL1        0.0513
     10 N          64.3348   85.8636   14.4494 N.2     1  UNL1       -0.2603
     11 C          63.5688   86.5357   13.3487 C.3     1  UNL1        0.2295
     12 C          61.0160   87.6746    9.8222 C.2     1  UNL1        0.1159
     13 C          60.8650   89.1174    9.4404 C.2     1  UNL1        0.0163
     14 C          60.0141   89.4970    8.2650 C.2     1  UNL1       -0.0150
     15 C          59.3142   88.4339    7.4712 C.3     1  UNL1        0.1132
     16 C          59.4652   86.9912    7.8529 C.2     1  UNL1        0.2501
     17 O          58.7653   85.9281    7.0592 O.2     1  UNL1       -0.2726
     18 N          60.3162   86.6116    9.0285 N.am    1  UNL1       -0.1752
     19 N          64.1217   89.0411   13.7577 N.pl3   1  UNL1       -0.2167
     20 H          64.8441   88.7952   14.3797 H       1  UNL1        0.2923
     21 C          63.7228   90.4788   13.6023 C.3     1  UNL1        0.2258
     22 C          63.3336   91.1873   10.7133 C.3     1  UNL1        0.0308
     23 C          64.4593   91.8018   11.4911 C.ar    1  UNL1       -0.0223
     24 C          65.3905   92.7707   10.8245 C.ar    1  UNL1       -0.0045
     25 C          66.5162   93.3852   11.6023 C.ar    1  UNL1       -0.0007
     26 C          66.7108   93.0309   13.0468 C.ar    1  UNL1       -0.0045
     27 C          65.7797   92.0621   13.7135 C.ar    1  UNL1       -0.0223
     28 C          65.9743   91.7078   15.1580 C.3     1  UNL1        0.0308
     29 C          64.6539   91.4475   12.9356 C.ar    1  UNL1        0.0162
@<TRIPOS>BOND
     1    22    23    1
     2    23    24   ar
     3    24    25   ar
     4    25    26   ar
     5    26    27   ar
     6    27    28    1
     7    27    29   ar
     8    29    21    1
     9    21    19    1
    10    19     1    1
    11     1     2    2
    12     2     3    1
    13     3    12    1
    14    12    13    1
    15    13    14    2
    16    14    15    1
    17    15    16    1
    18    16    17    2
    19    16    18    1
    20     3     4    2
    21     4     5    1
    22     5     6    2
    23     6     7    1
    24     6     8    1
    25     8     9    1
    26     8    10    2
    27    10    11    1
    28    29    23   ar
    29    11     1    1
    30    18    12    2
    31    11     5    1
    32    19    20    1
