@<TRIPOS>MOLECULE
*****
 35 38 0 0 0
SMALL
GASTEIGER

@<TRIPOS>ATOM
      1 C          64.7112   91.7155   12.5113 C.ar    1  UNL1        0.0528
      2 C          65.3210   91.5777   13.8748 C.ar    1  UNL1        0.0150
      3 C          65.0917   90.3307   14.6763 C.ar    1  UNL1        0.0082
      4 C          64.2526   89.2216   14.1144 C.ar    1  UNL1        0.0827
      5 C          63.6428   89.3594   12.7509 C.ar    1  UNL1        0.1459
      6 F          62.8037   88.2503   12.1890 F       1  UNL1       -0.2040
      7 C          63.8721   90.6064   11.9494 C.ar    1  UNL1        0.0445
      8 C          64.0233   87.9746   14.9160 C.ar    1  UNL1        0.2534
      9 N          63.2920   87.8886   16.2229 N.ar    1  UNL1       -0.1057
     10 N          63.3018   86.4556   16.6661 N.ar    1  UNL1       -0.0923
     11 C          64.0391   85.6560   15.6331 C.ar    1  UNL1        0.3086
     12 O          64.4851   86.5948   14.5515 O.2     1  UNL1       -0.4048
     13 N          64.2870   84.1772   15.6745 N.pl3   1  UNL1       -0.2871
     14 H          65.0324   83.8177   16.2078 H       1  UNL1        0.1512
     15 C          63.3993   83.2460   14.9032 C.3     1  UNL1        0.0912
     16 C          63.7353   82.8924   13.4847 C.3     1  UNL1        0.0227
     17 C          62.8454   83.3491   12.3669 C.3     1  UNL1        0.0191
     18 C          62.8409   84.7908   11.9532 C.3     1  UNL1        0.0723
     19 N          62.4169   85.1717   10.5656 N.3     1  UNL1       -0.2685
     20 C          61.1939   86.0156   10.3603 C.3     1  UNL1        0.1046
     21 C          60.7697   86.3965    8.9728 C.3     1  UNL1        0.1595
     22 O          61.5687   85.9335    7.7907 O.3     1  UNL1       -0.3508
     23 C          62.7917   85.0897    7.9961 C.3     1  UNL1        0.1595
     24 C          63.2158   84.7088    9.3836 C.3     1  UNL1        0.1046
     25 O          67.2191   92.0186   10.8931 O.2     1  UNL1       -0.2697
     26 C          66.1944   93.1140   10.9006 C.2     1  UNL1        0.2517
     27 N          64.9405   92.9625   11.7097 N.am    1  UNL1       -0.2803
     28 H          64.2680   93.6815   11.7146 H       1  UNL1        0.1552
     29 C          66.4237   94.3610   10.0990 C.ar    1  UNL1        0.0811
     30 C          65.6549   95.6091   10.4171 C.ar    1  UNL1        0.0068
     31 C          65.8842   96.8560    9.6155 C.ar    1  UNL1        0.0003
     32 C          66.8823   96.8548    8.4958 C.ar    1  UNL1        0.0023
     33 C          67.6511   95.6067    8.1777 C.ar    1  UNL1        0.0298
     34 C          67.4218   94.3598    8.9793 C.ar    1  UNL1        0.1445
     35 F          68.1906   93.1117    8.6612 F       1  UNL1       -0.2040
@<TRIPOS>BOND
     1    25    26    2
     2    26    27   am
     3    27     1    1
     4     1     2   ar
     5     2     3   ar
     6     3     4   ar
     7     4     8    1
     8     8     9   ar
     9     9    10   ar
    10    10    11   ar
    11    11    13    1
    12    13    15    1
    13    15    16    1
    14    16    17    1
    15    17    18    1
    16    18    19    1
    17    19    20    1
    18    20    21    1
    19    21    22    1
    20    22    23    1
    21    23    24    1
    22    11    12   ar
    23     4     5   ar
    24     5     6    1
    25     5     7   ar
    26    26    29    1
    27    29    30   ar
    28    30    31   ar
    29    31    32   ar
    30    32    33   ar
    31    33    34   ar
    32    34    35    1
    33     7     1   ar
    34    34    29   ar
    35    12     8   ar
    36    24    19    1
    37    27    28    1
    38    13    14    1
@<TRIPOS>MOLECULE
*****
 35 38 0 0 0
SMALL
GASTEIGER

@<TRIPOS>ATOM
      1 C          63.4276   86.3878   13.2428 C.ar    1  UNL1        0.0528
      2 C          63.9384   86.4130   14.6529 C.ar    1  UNL1        0.0150
      3 C          64.2658   87.7218   15.3086 C.ar    1  UNL1        0.0082
      4 C          64.0822   89.0052   14.5543 C.ar    1  UNL1        0.0827
      5 C          63.5714   88.9800   13.1442 C.ar    1  UNL1        0.1459
      6 F          63.3879   90.2634   12.3898 F       1  UNL1       -0.2040
      7 C          63.2441   87.6712   12.4885 C.ar    1  UNL1        0.0445
      8 C          64.4096   90.3140   15.2101 C.ar    1  UNL1        0.2534
      9 N          63.4990   91.1057   16.1012 N.ar    1  UNL1       -0.1057
     10 N          64.2316   92.3418   16.5318 N.ar    1  UNL1       -0.0923
     11 C          65.5949   92.3141   15.9067 C.ar    1  UNL1        0.3086
     12 O          65.7049   91.0608   15.0899 O.2     1  UNL1       -0.4048
     13 N          66.6611   93.3565   16.0699 N.pl3   1  UNL1       -0.2871
     14 H          66.6411   93.9640   16.8443 H       1  UNL1        0.1512
     15 C          67.7576   93.4734   15.0531 C.3     1  UNL1        0.0912
     16 C          68.3891   92.2368   14.4855 C.3     1  UNL1        0.0227
     17 C          68.2577   91.9313   13.0229 C.3     1  UNL1        0.0191
     18 C          66.9844   92.2570   12.3001 C.3     1  UNL1        0.0723
     19 N          66.9505   93.3844   11.3113 N.3     1  UNL1       -0.2685
     20 C          67.5526   93.2055    9.9492 C.3     1  UNL1        0.1046
     21 C          67.5188   94.3329    8.9602 C.3     1  UNL1        0.1595
     22 O          66.8827   95.6391    9.3334 O.3     1  UNL1       -0.3508
     23 C          66.2806   95.8179   10.6956 C.3     1  UNL1        0.1595
     24 C          66.3145   94.6905   11.6845 C.3     1  UNL1        0.1046
     25 O          64.9574   83.9153   13.9822 O.2     1  UNL1       -0.2697
     26 C          63.8652   83.8428   12.9567 C.2     1  UNL1        0.2517
     27 N          63.1002   85.0790   12.5870 N.am    1  UNL1       -0.2803
     28 H          62.3833   85.0314   11.9139 H       1  UNL1        0.1552
     29 C          63.5378   82.5340   12.3009 C.ar    1  UNL1        0.0811
     30 C          62.9674   81.4098   13.1137 C.ar    1  UNL1        0.0068
     31 C          62.6400   80.1011   12.4579 C.ar    1  UNL1        0.0003
     32 C          62.8832   79.9166   10.9893 C.ar    1  UNL1        0.0023
     33 C          63.4536   81.0408   10.1765 C.ar    1  UNL1        0.0298
     34 C          63.7809   82.3495   10.8323 C.ar    1  UNL1        0.1445
     35 F          64.3514   83.4738   10.0195 F       1  UNL1       -0.2040
@<TRIPOS>BOND
     1    25    26    2
     2    26    27   am
     3    27     1    1
     4     1     2   ar
     5     2     3   ar
     6     3     4   ar
     7     4     8    1
     8     8     9   ar
     9     9    10   ar
    10    10    11   ar
    11    11    13    1
    12    13    15    1
    13    15    16    1
    14    16    17    1
    15    17    18    1
    16    18    19    1
    17    19    20    1
    18    20    21    1
    19    21    22    1
    20    22    23    1
    21    23    24    1
    22    11    12   ar
    23     4     5   ar
    24     5     6    1
    25     5     7   ar
    26    26    29    1
    27    29    30   ar
    28    30    31   ar
    29    31    32   ar
    30    32    33   ar
    31    33    34   ar
    32    34    35    1
    33     7     1   ar
    34    34    29   ar
    35    12     8   ar
    36    24    19    1
    37    27    28    1
    38    13    14    1
@<TRIPOS>MOLECULE
*****
 35 38 0 0 0
SMALL
GASTEIGER

@<TRIPOS>ATOM
      1 C          62.8535   89.0069   11.0482 C.ar    1  UNL1        0.0528
      2 C          63.0276   90.4958   10.9950 C.ar    1  UNL1        0.0150
      3 C          63.5060   91.2387   12.2071 C.ar    1  UNL1        0.0082
      4 C          63.8105   90.4927   13.4723 C.ar    1  UNL1        0.0827
      5 C          63.6364   89.0038   13.5255 C.ar    1  UNL1        0.1459
      6 F          63.9409   88.2578   14.7908 F       1  UNL1       -0.2040
      7 C          63.1579   88.2609   12.3135 C.ar    1  UNL1        0.0445
      8 C          64.2890   91.2357   14.6844 C.ar    1  UNL1        0.2534
      9 N          63.4942   91.4964   15.9295 N.ar    1  UNL1       -0.1057
     10 N          64.3602   92.2702   16.8788 N.ar    1  UNL1       -0.0923
     11 C          65.6904   92.4877   16.2204 C.ar    1  UNL1        0.3086
     12 O          65.6463   91.8484   14.8642 O.2     1  UNL1       -0.4048
     13 N          66.8593   93.2166   16.8139 N.pl3   1  UNL1       -0.2871
     14 H          66.8301   93.5120   17.7526 H       1  UNL1        0.1512
     15 C          68.0726   93.4955   15.9773 C.3     1  UNL1        0.0912
     16 C          68.9002   92.3591   15.4540 C.3     1  UNL1        0.0227
     17 C          69.0736   92.1763   13.9754 C.3     1  UNL1        0.0191
     18 C          67.9066   91.7624   13.1289 C.3     1  UNL1        0.0723
     19 N          67.4639   92.6282   11.9868 N.3     1  UNL1       -0.2685
     20 C          67.9684   92.3567   10.6005 C.3     1  UNL1        0.1046
     21 C          67.5258   93.2224    9.4582 C.3     1  UNL1        0.1595
     22 O          66.5786   94.3597    9.7023 O.3     1  UNL1       -0.3508
     23 C          66.0741   94.6311   11.0887 C.3     1  UNL1        0.1595
     24 C          66.5168   93.7654   12.2308 C.3     1  UNL1        0.1046
     25 O          62.7559   86.0086   11.0683 O.2     1  UNL1       -0.2697
     26 C          62.3262   86.7648    9.8462 C.2     1  UNL1        0.2517
     27 N          62.3750   88.2639    9.8362 N.am    1  UNL1       -0.2803
     28 H          62.0929   88.7603    9.0341 H       1  UNL1        0.1552
     29 C          61.8476   86.0218    8.6341 C.ar    1  UNL1        0.0811
     30 C          62.8164   85.2241    7.8124 C.ar    1  UNL1        0.0068
     31 C          62.3379   84.4812    6.6004 C.ar    1  UNL1        0.0003
     32 C          60.8906   84.5360    6.2101 C.ar    1  UNL1        0.0023
     33 C          59.9218   85.3336    7.0318 C.ar    1  UNL1        0.0298
     34 C          60.4004   86.0766    8.2438 C.ar    1  UNL1        0.1445
     35 F          59.4316   86.8743    9.0655 F       1  UNL1       -0.2040
@<TRIPOS>BOND
     1    25    26    2
     2    26    27   am
     3    27     1    1
     4     1     2   ar
     5     2     3   ar
     6     3     4   ar
     7     4     8    1
     8     8     9   ar
     9     9    10   ar
    10    10    11   ar
    11    11    13    1
    12    13    15    1
    13    15    16    1
    14    16    17    1
    15    17    18    1
    16    18    19    1
    17    19    20    1
    18    20    21    1
    19    21    22    1
    20    22    23    1
    21    23    24    1
    22    11    12   ar
    23     4     5   ar
    24     5     6    1
    25     5     7   ar
    26    26    29    1
    27    29    30   ar
    28    30    31   ar
    29    31    32   ar
    30    32    33   ar
    31    33    34   ar
    32    34    35    1
    33     7     1   ar
    34    34    29   ar
    35    12     8   ar
    36    24    19    1
    37    27    28    1
    38    13    14    1
@<TRIPOS>MOLECULE
*****
 35 38 0 0 0
SMALL
GASTEIGER

@<TRIPOS>ATOM
      1 C          63.7188   85.2215   14.2089 C.ar    1  UNL1        0.0528
      2 C          63.9755   86.3008   13.1993 C.ar    1  UNL1        0.0150
      3 C          64.0607   87.7328   13.6376 C.ar    1  UNL1        0.0082
      4 C          63.8892   88.0855   15.0855 C.ar    1  UNL1        0.0827
      5 C          63.6324   87.0062   16.0950 C.ar    1  UNL1        0.1459
      6 F          63.4609   87.3589   17.5428 F       1  UNL1       -0.2040
      7 C          63.5473   85.5742   15.6567 C.ar    1  UNL1        0.0445
      8 C          63.9743   89.5175   15.5237 C.ar    1  UNL1        0.2534
      9 N          62.9219   90.2719   16.2810 N.ar    1  UNL1       -0.1057
     10 N          63.4240   91.6672   16.5070 N.ar    1  UNL1       -0.0923
     11 C          64.7867   91.7752   15.8894 C.ar    1  UNL1        0.3086
     12 O          65.1268   90.4466   15.2817 O.2     1  UNL1       -0.4048
     13 N          65.6566   92.9972   15.8809 N.pl3   1  UNL1       -0.2871
     14 H          65.7191   93.5625   16.6845 H       1  UNL1        0.1512
     15 C          66.4311   93.3579   14.6481 C.3     1  UNL1        0.0912
     16 C          67.5294   92.4589   14.1625 C.3     1  UNL1        0.0227
     17 C          67.6436   92.1359   12.7022 C.3     1  UNL1        0.0191
     18 C          66.5916   92.6109   11.7444 C.3     1  UNL1        0.0723
     19 N          66.8252   93.8459   10.9257 N.3     1  UNL1       -0.2685
     20 C          66.3808   95.1826   11.4412 C.3     1  UNL1        0.1046
     21 C          66.6144   96.4176   10.6225 C.3     1  UNL1        0.1595
     22 O          67.2923   96.3159    9.2883 O.3     1  UNL1       -0.3508
     23 C          67.7366   94.9791    8.7729 C.3     1  UNL1        0.1595
     24 C          67.5030   93.7442    9.5915 C.3     1  UNL1        0.1046
     25 O          62.3385   84.5186   11.6397 O.2     1  UNL1       -0.2697
     26 C          62.9435   83.4381   12.4860 C.2     1  UNL1        0.2517
     27 N          63.6336   83.7895   13.7706 N.am    1  UNL1       -0.2803
     28 H          64.0307   83.0802   14.3261 H       1  UNL1        0.1552
     29 C          62.8583   82.0060   12.0477 C.ar    1  UNL1        0.0811
     30 C          63.2009   81.6320   10.6361 C.ar    1  UNL1        0.0068
     31 C          63.1157   80.2000   10.1979 C.ar    1  UNL1        0.0003
     32 C          62.6879   79.1420   11.1713 C.ar    1  UNL1        0.0023
     33 C          62.3453   79.5160   12.5829 C.ar    1  UNL1        0.0298
     34 C          62.4305   80.9480   13.0212 C.ar    1  UNL1        0.1445
     35 F          62.0878   81.3220   14.4328 F       1  UNL1       -0.2040
@<TRIPOS>BOND
     1    25    26    2
     2    26    27   am
     3    27     1    1
     4     1     2   ar
     5     2     3   ar
     6     3     4   ar
     7     4     8    1
     8     8     9   ar
     9     9    10   ar
    10    10    11   ar
    11    11    13    1
    12    13    15    1
    13    15    16    1
    14    16    17    1
    15    17    18    1
    16    18    19    1
    17    19    20    1
    18    20    21    1
    19    21    22    1
    20    22    23    1
    21    23    24    1
    22    11    12   ar
    23     4     5   ar
    24     5     6    1
    25     5     7   ar
    26    26    29    1
    27    29    30   ar
    28    30    31   ar
    29    31    32   ar
    30    32    33   ar
    31    33    34   ar
    32    34    35    1
    33     7     1   ar
    34    34    29   ar
    35    12     8   ar
    36    24    19    1
    37    27    28    1
    38    13    14    1
@<TRIPOS>MOLECULE
*****
 35 38 0 0 0
SMALL
GASTEIGER

@<TRIPOS>ATOM
      1 C          64.6666   91.8271   12.3682 C.ar    1  UNL1        0.0528
      2 C          65.3231   91.8001   13.7165 C.ar    1  UNL1        0.0150
      3 C          65.0109   90.6943   14.6807 C.ar    1  UNL1        0.0082
      4 C          64.0420   89.6155   14.2965 C.ar    1  UNL1        0.0827
      5 C          63.3854   89.6426   12.9481 C.ar    1  UNL1        0.1459
      6 F          62.4166   88.5638   12.5639 F       1  UNL1       -0.2040
      7 C          63.6977   90.7484   11.9840 C.ar    1  UNL1        0.0445
      8 C          63.7297   88.5097   15.2607 C.ar    1  UNL1        0.2534
      9 N          62.9825   88.6520   16.5536 N.ar    1  UNL1       -0.1057
     10 N          62.9008   87.2978   17.1933 N.ar    1  UNL1       -0.0923
     11 C          63.5976   86.3184   16.2958 C.ar    1  UNL1        0.3086
     12 O          64.1099   87.0675   15.1014 O.2     1  UNL1       -0.4048
     13 N          63.7545   84.8482   16.5483 N.pl3   1  UNL1       -0.2871
     14 H          64.2517   84.5347   17.3381 H       1  UNL1        0.1512
     15 C          63.1539   83.8556   15.5976 C.3     1  UNL1        0.0912
     16 C          64.0180   83.1786   14.5752 C.3     1  UNL1        0.0227
     17 C          64.4901   83.9382   13.3710 C.3     1  UNL1        0.0191
     18 C          64.0805   83.4962   11.9974 C.3     1  UNL1        0.0723
     19 N          63.5806   82.0992   11.7769 N.3     1  UNL1       -0.2685
     20 C          63.1190   81.2752   12.9421 C.3     1  UNL1        0.1046
     21 C          62.6191   79.8782   12.7217 C.3     1  UNL1        0.1595
     22 O          62.5809   79.3052   11.3359 O.3     1  UNL1       -0.3508
     23 C          63.0425   80.1294   10.1707 C.3     1  UNL1        0.1595
     24 C          63.5424   81.5263   10.3912 C.3     1  UNL1        0.1046
     25 O          67.5200   92.5287   11.7631 O.2     1  UNL1       -0.2697
     26 C          66.4055   93.2837   11.1014 C.2     1  UNL1        0.2517
     27 N          64.9788   92.9330   11.4039 N.am    1  UNL1       -0.2803
     28 H          64.2474   93.4286   10.9696 H       1  UNL1        0.1552
     29 C          66.7178   94.3896   10.1372 C.ar    1  UNL1        0.0811
     30 C          66.1188   95.7502   10.3369 C.ar    1  UNL1        0.0068
     31 C          66.4311   96.8559    9.3727 C.ar    1  UNL1        0.0003
     32 C          67.3423   96.6011    8.2088 C.ar    1  UNL1        0.0023
     33 C          67.9413   95.2404    8.0091 C.ar    1  UNL1        0.0298
     34 C          67.6290   94.1347    8.9733 C.ar    1  UNL1        0.1445
     35 F          68.2279   92.7740    8.7736 F       1  UNL1       -0.2040
@<TRIPOS>BOND
     1    25    26    2
     2    26    27   am
     3    27     1    1
     4     1     2   ar
     5     2     3   ar
     6     3     4   ar
     7     4     8    1
     8     8     9   ar
     9     9    10   ar
    10    10    11   ar
    11    11    13    1
    12    13    15    1
    13    15    16    1
    14    16    17    1
    15    17    18    1
    16    18    19    1
    17    19    20    1
    18    20    21    1
    19    21    22    1
    20    22    23    1
    21    23    24    1
    22    11    12   ar
    23     4     5   ar
    24     5     6    1
    25     5     7   ar
    26    26    29    1
    27    29    30   ar
    28    30    31   ar
    29    31    32   ar
    30    32    33   ar
    31    33    34   ar
    32    34    35    1
    33     7     1   ar
    34    34    29   ar
    35    12     8   ar
    36    24    19    1
    37    27    28    1
    38    13    14    1
@<TRIPOS>MOLECULE
*****
 35 38 0 0 0
SMALL
GASTEIGER

@<TRIPOS>ATOM
      1 C          60.6667   86.8153    9.7030 C.ar    1  UNL1        0.0528
      2 C          60.1647   86.3094    8.3832 C.ar    1  UNL1        0.0150
      3 C          59.6428   87.2738    7.3598 C.ar    1  UNL1        0.0082
      4 C          59.6230   88.7441    7.6561 C.ar    1  UNL1        0.0827
      5 C          60.1250   89.2500    8.9760 C.ar    1  UNL1        0.1459
      6 F          60.1052   90.7203    9.2723 F       1  UNL1       -0.2040
      7 C          60.6469   88.2855    9.9994 C.ar    1  UNL1        0.0445
      8 C          59.1011   89.7085    6.6326 C.ar    1  UNL1        0.2534
      9 N          57.6591   89.9283    6.2828 N.ar    1  UNL1       -0.1057
     10 N          57.5963   90.9780    5.2132 N.ar    1  UNL1       -0.0923
     11 C          58.9996   91.4071    4.9019 C.ar    1  UNL1        0.3086
     12 O          59.9296   90.6225    5.7792 O.2     1  UNL1       -0.4048
     13 N          59.4022   92.4395    3.8909 N.pl3   1  UNL1       -0.2871
     14 H          58.7601   93.1315    3.6116 H       1  UNL1        0.1512
     15 C          60.7830   92.4174    3.3055 C.3     1  UNL1        0.0912
     16 C          61.0277   92.9871    1.9396 C.3     1  UNL1        0.0227
     17 C          59.8784   93.2043    1.0006 C.3     1  UNL1        0.0191
     18 C          59.7512   92.3650   -0.2360 C.3     1  UNL1        0.0723
     19 N          58.7178   92.7035   -1.2692 N.3     1  UNL1       -0.2685
     20 C          57.2609   92.6614   -0.9146 C.3     1  UNL1        0.1046
     21 C          56.2274   92.9999   -1.9479 C.3     1  UNL1        0.1595
     22 O          56.6509   93.3804   -3.3357 O.3     1  UNL1       -0.3508
     23 C          58.1078   93.4224   -3.6901 C.3     1  UNL1        0.1595
     24 C          59.1412   93.0839   -2.6569 C.3     1  UNL1        0.1046
     25 O          63.1332   85.2070    9.1285 O.2     1  UNL1       -0.2697
     26 C          62.4218   85.0467   10.4393 C.2     1  UNL1        0.2517
     27 N          61.1886   85.8508   10.7266 N.am    1  UNL1       -0.2803
     28 H          60.7217   85.7456   11.5869 H       1  UNL1        0.1552
     29 C          62.9437   84.0823   11.4629 C.ar    1  UNL1        0.0811
     30 C          62.8815   82.6063   11.2030 C.ar    1  UNL1        0.0068
     31 C          63.4034   81.6420   12.2265 C.ar    1  UNL1        0.0003
     32 C          63.9875   82.1536   13.5099 C.ar    1  UNL1        0.0023
     33 C          64.0496   83.6296   13.7698 C.ar    1  UNL1        0.0298
     34 C          63.5278   84.5939   12.7463 C.ar    1  UNL1        0.1445
     35 F          63.5899   86.0700   13.0061 F       1  UNL1       -0.2040
@<TRIPOS>BOND
     1    25    26    2
     2    26    27   am
     3    27     1    1
     4     1     2   ar
     5     2     3   ar
     6     3     4   ar
     7     4     8    1
     8     8     9   ar
     9     9    10   ar
    10    10    11   ar
    11    11    13    1
    12    13    15    1
    13    15    16    1
    14    16    17    1
    15    17    18    1
    16    18    19    1
    17    19    20    1
    18    20    21    1
    19    21    22    1
    20    22    23    1
    21    23    24    1
    22    11    12   ar
    23     4     5   ar
    24     5     6    1
    25     5     7   ar
    26    26    29    1
    27    29    30   ar
    28    30    31   ar
    29    31    32   ar
    30    32    33   ar
    31    33    34   ar
    32    34    35    1
    33     7     1   ar
    34    34    29   ar
    35    12     8   ar
    36    24    19    1
    37    27    28    1
    38    13    14    1
@<TRIPOS>MOLECULE
*****
 35 38 0 0 0
SMALL
GASTEIGER

@<TRIPOS>ATOM
      1 C          60.7719   87.2908   10.0516 C.ar    1  UNL1        0.0528
      2 C          61.0265   88.7687   10.0830 C.ar    1  UNL1        0.0150
      3 C          60.5282   89.6394    8.9679 C.ar    1  UNL1        0.0082
      4 C          59.7754   89.0323    7.8213 C.ar    1  UNL1        0.0827
      5 C          59.5208   87.5544    7.7898 C.ar    1  UNL1        0.1459
      6 F          58.7680   86.9472    6.6433 F       1  UNL1       -0.2040
      7 C          60.0191   86.6837    8.9050 C.ar    1  UNL1        0.0445
      8 C          59.2772   89.9031    6.7061 C.ar    1  UNL1        0.2534
      9 N          57.8479   90.0543    6.2768 N.ar    1  UNL1       -0.1057
     10 N          57.8080   91.0202    5.1299 N.ar    1  UNL1       -0.0923
     11 C          59.2128   91.4659    4.8504 C.ar    1  UNL1        0.3086
     12 O          60.1207   90.7755    5.8246 O.2     1  UNL1       -0.4048
     13 N          59.6354   92.4325    3.7839 N.pl3   1  UNL1       -0.2871
     14 H          59.0063   93.1192    3.4647 H       1  UNL1        0.1512
     15 C          61.0164   92.3527    3.2039 C.3     1  UNL1        0.0912
     16 C          61.4017   93.2424    2.0594 C.3     1  UNL1        0.0227
     17 C          61.7320   92.6454    0.7235 C.3     1  UNL1        0.0191
     18 C          60.6433   92.0599   -0.1261 C.3     1  UNL1        0.0723
     19 N          59.6947   92.9630   -0.8572 N.3     1  UNL1       -0.2685
     20 C          60.0404   93.4607   -2.2293 C.3     1  UNL1        0.1046
     21 C          59.0918   94.3639   -2.9606 C.3     1  UNL1        0.1595
     22 O          57.7976   94.7692   -2.3196 O.3     1  UNL1       -0.3508
     23 C          57.4521   94.2714   -0.9475 C.3     1  UNL1        0.1595
     24 C          58.4006   93.3683   -0.2163 C.3     1  UNL1        0.1046
     25 O          62.8952   85.2395    9.5188 O.2     1  UNL1       -0.2697
     26 C          62.3318   85.3944   10.9003 C.2     1  UNL1        0.2517
     27 N          61.2701   86.4200   11.1667 N.am    1  UNL1       -0.2803
     28 H          60.9003   86.5216   12.0735 H       1  UNL1        0.1552
     29 C          62.8300   84.5236   12.0155 C.ar    1  UNL1        0.0811
     30 C          62.6271   83.0386   11.9554 C.ar    1  UNL1        0.0068
     31 C          63.1254   82.1679   13.0705 C.ar    1  UNL1        0.0003
     32 C          63.8265   82.7821   14.2458 C.ar    1  UNL1        0.0023
     33 C          64.0293   84.2671   14.3059 C.ar    1  UNL1        0.0298
     34 C          63.5311   85.1378   13.1907 C.ar    1  UNL1        0.1445
     35 F          63.7340   86.6229   13.2508 F       1  UNL1       -0.2040
@<TRIPOS>BOND
     1    25    26    2
     2    26    27   am
     3    27     1    1
     4     1     2   ar
     5     2     3   ar
     6     3     4   ar
     7     4     8    1
     8     8     9   ar
     9     9    10   ar
    10    10    11   ar
    11    11    13    1
    12    13    15    1
    13    15    16    1
    14    16    17    1
    15    17    18    1
    16    18    19    1
    17    19    20    1
    18    20    21    1
    19    21    22    1
    20    22    23    1
    21    23    24    1
    22    11    12   ar
    23     4     5   ar
    24     5     6    1
    25     5     7   ar
    26    26    29    1
    27    29    30   ar
    28    30    31   ar
    29    31    32   ar
    30    32    33   ar
    31    33    34   ar
    32    34    35    1
    33     7     1   ar
    34    34    29   ar
    35    12     8   ar
    36    24    19    1
    37    27    28    1
    38    13    14    1
@<TRIPOS>MOLECULE
*****
 35 38 0 0 0
SMALL
GASTEIGER

@<TRIPOS>ATOM
      1 C          60.7912   87.2597   10.0665 C.ar    1  UNL1        0.0528
      2 C          61.0538   88.7364   10.0852 C.ar    1  UNL1        0.0150
      3 C          60.5576   89.6006    8.9641 C.ar    1  UNL1        0.0082
      4 C          59.7988   88.9881    7.8243 C.ar    1  UNL1        0.0827
      5 C          59.5361   87.5115    7.8056 C.ar    1  UNL1        0.1459
      6 F          58.7773   86.8990    6.6659 F       1  UNL1       -0.2040
      7 C          60.0324   86.6472    8.9267 C.ar    1  UNL1        0.0445
      8 C          59.3025   89.8525    6.7032 C.ar    1  UNL1        0.2534
      9 N          57.8709   90.0247    6.2900 N.ar    1  UNL1       -0.1057
     10 N          57.8343   90.9749    5.1300 N.ar    1  UNL1       -0.0923
     11 C          59.2434   91.3900    4.8263 C.ar    1  UNL1        0.3086
     12 O          60.1508   90.6962    5.7986 O.2     1  UNL1       -0.4048
     13 N          59.6702   92.3332    3.7408 N.pl3   1  UNL1       -0.2871
     14 H          59.0100   92.9297    3.3194 H       1  UNL1        0.1512
     15 C          61.1027   92.3674    3.2973 C.3     1  UNL1        0.0912
     16 C          61.4607   92.9492    1.9619 C.3     1  UNL1        0.0227
     17 C          62.8402   92.7564    1.4053 C.3     1  UNL1        0.0191
     18 C          63.8178   93.8940    1.4130 C.3     1  UNL1        0.0723
     19 N          64.2372   94.5314    0.1216 N.3     1  UNL1       -0.2685
     20 C          63.7570   93.9684   -1.1832 C.3     1  UNL1        0.1046
     21 C          64.1764   94.6057   -2.4748 C.3     1  UNL1        0.1595
     22 O          65.0760   95.8059   -2.4615 O.3     1  UNL1       -0.3508
     23 C          65.5561   96.3688   -1.1567 C.3     1  UNL1        0.1595
     24 C          65.1368   95.7315    0.1348 C.3     1  UNL1        0.1046
     25 O          62.8951   85.1859    9.5436 O.2     1  UNL1       -0.2697
     26 C          62.3394   85.3585   10.9261 C.2     1  UNL1        0.2517
     27 N          61.2875   86.3954   11.1876 N.am    1  UNL1       -0.2803
     28 H          60.9227   86.5086   12.0950 H       1  UNL1        0.1552
     29 C          62.8356   84.4942   12.0472 C.ar    1  UNL1        0.0811
     30 C          62.6286   83.0094   11.9976 C.ar    1  UNL1        0.0068
     31 C          63.1248   82.1452   13.1187 C.ar    1  UNL1        0.0003
     32 C          63.8281   82.7658   14.2893 C.ar    1  UNL1        0.0023
     33 C          64.0351   84.2505   14.3389 C.ar    1  UNL1        0.0298
     34 C          63.5388   85.1148   13.2178 C.ar    1  UNL1        0.1445
     35 F          63.7458   86.5996   13.2674 F       1  UNL1       -0.2040
@<TRIPOS>BOND
     1    25    26    2
     2    26    27   am
     3    27     1    1
     4     1     2   ar
     5     2     3   ar
     6     3     4   ar
     7     4     8    1
     8     8     9   ar
     9     9    10   ar
    10    10    11   ar
    11    11    13    1
    12    13    15    1
    13    15    16    1
    14    16    17    1
    15    17    18    1
    16    18    19    1
    17    19    20    1
    18    20    21    1
    19    21    22    1
    20    22    23    1
    21    23    24    1
    22    11    12   ar
    23     4     5   ar
    24     5     6    1
    25     5     7   ar
    26    26    29    1
    27    29    30   ar
    28    30    31   ar
    29    31    32   ar
    30    32    33   ar
    31    33    34   ar
    32    34    35    1
    33     7     1   ar
    34    34    29   ar
    35    12     8   ar
    36    24    19    1
    37    27    28    1
    38    13    14    1
@<TRIPOS>MOLECULE
*****
 35 38 0 0 0
SMALL
GASTEIGER

@<TRIPOS>ATOM
      1 C          63.1657   86.2671   13.9178 C.ar    1  UNL1        0.0528
      2 C          63.5876   87.3907   13.0181 C.ar    1  UNL1        0.0150
      3 C          63.9525   88.7229   13.6027 C.ar    1  UNL1        0.0082
      4 C          63.8956   88.9316   15.0871 C.ar    1  UNL1        0.0827
      5 C          63.4737   87.8080   15.9867 C.ar    1  UNL1        0.1459
      6 F          63.4168   88.0166   17.4711 F       1  UNL1       -0.2040
      7 C          63.1087   86.4757   15.4021 C.ar    1  UNL1        0.0445
      8 C          64.2606   90.2639   15.6717 C.ar    1  UNL1        0.2534
      9 N          63.4400   91.0526   16.6487 N.ar    1  UNL1       -0.1057
     10 N          64.1824   92.3176   16.9629 N.ar    1  UNL1       -0.0923
     11 C          65.4619   92.3106   16.1799 C.ar    1  UNL1        0.3086
     12 O          65.5102   91.0414   15.3820 O.2     1  UNL1       -0.4048
     13 N          66.5092   93.3844   16.1927 N.pl3   1  UNL1       -0.2871
     14 H          66.7056   93.8705   17.0260 H       1  UNL1        0.1512
     15 C          67.2573   93.7175   14.9360 C.3     1  UNL1        0.0912
     16 C          66.5505   93.6914   13.6132 C.3     1  UNL1        0.0227
     17 C          66.5343   94.9160   12.7472 C.3     1  UNL1        0.0191
     18 C          66.0709   94.8219   11.3238 C.3     1  UNL1        0.0723
     19 N          66.8996   94.0871   10.3121 N.3     1  UNL1       -0.2685
     20 C          67.3109   94.7697    9.0413 C.3     1  UNL1        0.1046
     21 C          68.1397   94.0349    8.0296 C.3     1  UNL1        0.1595
     22 O          68.5571   92.6177    8.2888 O.3     1  UNL1       -0.3508
     23 C          68.1458   91.9352    9.5597 C.3     1  UNL1        0.1595
     24 C          67.3171   92.6699   10.5713 C.3     1  UNL1        0.1046
     25 O          65.1110   83.9871   14.0504 O.2     1  UNL1       -0.2697
     26 C          63.7733   83.7948   13.3995 C.2     1  UNL1        0.2517
     27 N          62.8007   84.9347   13.3331 N.am    1  UNL1       -0.2803
     28 H          61.9228   84.8085   12.9059 H       1  UNL1        0.1552
     29 C          63.4084   82.4624   12.8148 C.ar    1  UNL1        0.0811
     30 C          62.8431   81.3869   13.6944 C.ar    1  UNL1        0.0068
     31 C          62.4781   80.0547   13.1097 C.ar    1  UNL1        0.0003
     32 C          62.6785   79.7979   11.6455 C.ar    1  UNL1        0.0023
     33 C          63.2437   80.8734   10.7659 C.ar    1  UNL1        0.0298
     34 C          63.6087   82.2057   11.3506 C.ar    1  UNL1        0.1445
     35 F          64.1740   83.2813   10.4710 F       1  UNL1       -0.2040
@<TRIPOS>BOND
     1    25    26    2
     2    26    27   am
     3    27     1    1
     4     1     2   ar
     5     2     3   ar
     6     3     4   ar
     7     4     8    1
     8     8     9   ar
     9     9    10   ar
    10    10    11   ar
    11    11    13    1
    12    13    15    1
    13    15    16    1
    14    16    17    1
    15    17    18    1
    16    18    19    1
    17    19    20    1
    18    20    21    1
    19    21    22    1
    20    22    23    1
    21    23    24    1
    22    11    12   ar
    23     4     5   ar
    24     5     6    1
    25     5     7   ar
    26    26    29    1
    27    29    30   ar
    28    30    31   ar
    29    31    32   ar
    30    32    33   ar
    31    33    34   ar
    32    34    35    1
    33     7     1   ar
    34    34    29   ar
    35    12     8   ar
    36    24    19    1
    37    27    28    1
    38    13    14    1
