@<TRIPOS>MOLECULE
*****
 39 41 0 0 0
SMALL
GASTEIGER

@<TRIPOS>ATOM
      1 C          63.5812   87.1903   15.9819 C.3     1  UNL1        0.1811
      2 O          64.2446   87.3307   14.6439 O.3     1  UNL1       -0.3784
      3 H          64.1205   88.2347   14.3149 H       1  UNL1        0.2106
      4 C          62.9179   87.0498   17.3200 C.3     1  UNL1        0.4197
      5 F          62.2546   86.9094   18.6580 F       1  UNL1       -0.1676
      6 F          63.8228   85.8993   17.6479 F       1  UNL1       -0.1676
      7 F          62.0131   88.2003   16.9922 F       1  UNL1       -0.1676
      8 C          63.1433   88.6233   15.9152 C.3     1  UNL1        0.0807
      9 C          65.3224   92.4467   11.1997 C.2     1  UNL1        0.1857
     10 C          65.6262   91.9483   12.5814 C.2     1  UNL1        0.0359
     11 C          64.6901   90.9895   13.2556 C.2     1  UNL1        0.0095
     12 C          64.7261   90.3316   14.6032 C.2     1  UNL1        0.0124
     13 C          63.5084   89.4647   14.7283 C.2     1  UNL1        0.0568
     14 N          62.7199   89.5867   13.4581 N.2     1  UNL1       -0.2661
     15 C          63.4503   90.5291   12.5479 C.3     1  UNL1        0.1661
     16 C          63.1465   91.0275   11.1661 C.2     1  UNL1        0.1025
     17 N          64.0826   91.9863   10.4920 N.2     1  UNL1       -0.2281
     18 S          66.2585   93.4055   10.5256 S.O2    1  UNL1        0.0233
     19 O          65.3226   94.5363   10.8344 O.2     1  UNL1       -0.1672
     20 O          67.1945   92.2747   10.2168 O.2     1  UNL1       -0.1672
     21 C          68.3371   93.8449    9.0301 C.3     1  UNL1        0.0258
     22 C          67.1946   94.3644    9.8515 C.3     1  UNL1        0.1356
     23 C          66.9882   95.8428    9.9989 C.3     1  UNL1        0.0258
     24 C          64.0192   85.7572   16.0487 C.3     1  UNL1        0.0398
     25 C          63.8274   84.8584   14.8631 C.3     1  UNL1        0.0216
     26 C          62.3729   84.7207   15.2028 C.3     1  UNL1        0.0045
     27 C          65.2820   84.9961   14.5234 C.3     1  UNL1        0.0045
     28 C          63.6356   83.9596   13.6777 C.ar    1  UNL1       -0.0182
     29 C          64.0498   82.5199   13.7532 C.ar    1  UNL1       -0.0018
     30 C          63.8580   81.6211   12.5678 C.ar    1  UNL1        0.0293
     31 C          63.2520   82.1620   11.3067 C.ar    1  UNL1        0.1403
     32 F          63.0602   81.2632   10.1212 F       1  UNL1       -0.2042
     33 C          62.8378   83.6017   11.2311 C.ar    1  UNL1        0.0338
     34 C          63.0296   84.5005   12.4167 C.ar    1  UNL1        0.0514
     35 C          62.6154   85.9402   12.3411 C.2     1  UNL1        0.2425
     36 N          61.1862   86.2954   12.0561 N.am    1  UNL1       -0.3253
     37 O          63.6303   87.0246   12.5507 O.2     1  UNL1       -0.2704
     38 H          60.5200   85.5837   11.9185 H       1  UNL1        0.1453
     39 H          60.9143   87.2403   12.0065 H       1  UNL1        0.1453
@<TRIPOS>BOND
     1    21    22    1
     2    22    23    1
     3    22    18    1
     4    18    19    2
     5    18    20    2
     6    18     9    1
     7     9    10    2
     8    10    11    1
     9    11    12    2
    10    12    13    1
    11    13     8    1
    12     8     1    1
    13     1     2    1
    14     1    24    1
    15    24    25    1
    16    25    26    1
    17    25    27    1
    18    25    28    1
    19    28    29   ar
    20    29    30   ar
    21    30    31   ar
    22    31    32    1
    23    31    33   ar
    24    33    34   ar
    25    34    35    1
    26    35    36   am
    27    35    37    2
    28     1     4    1
    29     4     5    1
    30     4     6    1
    31     4     7    1
    32    13    14    2
    33    14    15    1
    34    15    16    1
    35    16    17    2
    36    17     9    1
    37    15    11    1
    38    34    28   ar
    39     2     3    1
    40    36    38    1
    41    36    39    1
@<TRIPOS>MOLECULE
*****
 39 41 0 0 0
SMALL
GASTEIGER

@<TRIPOS>ATOM
      1 C          63.4343   87.3254   16.1020 C.3     1  UNL1        0.1811
      2 O          63.8083   87.3989   14.6513 O.3     1  UNL1       -0.3784
      3 H          63.8687   88.3282   14.3797 H       1  UNL1        0.2106
      4 C          63.0603   87.2518   17.5529 C.3     1  UNL1        0.4197
      5 F          62.6863   87.1782   19.0036 F       1  UNL1       -0.1676
      6 F          63.1621   88.7448   17.6549 F       1  UNL1       -0.1676
      7 F          62.9585   85.7588   17.4508 F       1  UNL1       -0.1676
      8 C          63.4011   88.8235   16.1694 C.3     1  UNL1        0.0807
      9 C          65.3761   92.5220   11.2680 C.2     1  UNL1        0.1857
     10 C          65.7473   92.0452   12.6408 C.2     1  UNL1        0.0359
     11 C          64.8353   91.1141   13.3836 C.2     1  UNL1        0.0095
     12 C          64.9350   90.4815   14.7400 C.2     1  UNL1        0.0124
     13 C          63.7133   89.6363   14.9480 C.2     1  UNL1        0.0568
     14 N          62.8587   89.7466   13.7203 N.2     1  UNL1       -0.2661
     15 C          63.5521   90.6599   12.7533 C.3     1  UNL1        0.1661
     16 C          63.1809   91.1368   11.3804 C.2     1  UNL1        0.1025
     17 N          64.0929   92.0678   10.6378 N.2     1  UNL1       -0.2281
     18 S          66.2880   93.4530   10.5253 S.O2    1  UNL1        0.0233
     19 O          67.2211   92.3132   10.2422 O.2     1  UNL1       -0.1672
     20 O          65.3549   94.5929   10.8084 O.2     1  UNL1       -0.1672
     21 C          66.9791   95.8658    9.8542 C.3     1  UNL1        0.0258
     22 C          67.2000   94.3840    9.7827 C.3     1  UNL1        0.1356
     23 C          68.3329   93.8330    8.9684 C.3     1  UNL1        0.0258
     24 C          63.4675   85.8273   16.0347 C.3     1  UNL1        0.0398
     25 C          63.4395   85.1356   14.7039 C.3     1  UNL1        0.0216
     26 C          61.9618   84.9215   14.8464 C.3     1  UNL1        0.0045
     27 C          64.9174   85.3497   14.5615 C.3     1  UNL1        0.0045
     28 C          63.4115   84.4438   13.3733 C.ar    1  UNL1       -0.0182
     29 C          63.3974   85.2506   12.1088 C.ar    1  UNL1       -0.0018
     30 C          63.3693   84.5588   10.7781 C.ar    1  UNL1        0.0293
     31 C          63.3554   83.0603   10.7119 C.ar    1  UNL1        0.1403
     32 F          63.3273   82.3686    9.3813 F       1  UNL1       -0.2042
     33 C          63.3694   82.2536   11.9765 C.ar    1  UNL1        0.0338
     34 C          63.3975   82.9454   13.3072 C.ar    1  UNL1        0.0514
     35 C          63.4116   82.1387   14.5717 C.2     1  UNL1        0.2425
     36 N          62.3062   81.1641   14.8519 N.am    1  UNL1       -0.3253
     37 O          64.5310   82.3065   15.5559 O.2     1  UNL1       -0.2704
     38 H          61.5715   81.0540   14.2059 H       1  UNL1        0.1453
     39 H          62.3154   80.6346   15.6819 H       1  UNL1        0.1453
@<TRIPOS>BOND
     1    21    22    1
     2    22    23    1
     3    22    18    1
     4    18    19    2
     5    18    20    2
     6    18     9    1
     7     9    10    2
     8    10    11    1
     9    11    12    2
    10    12    13    1
    11    13     8    1
    12     8     1    1
    13     1     2    1
    14     1    24    1
    15    24    25    1
    16    25    26    1
    17    25    27    1
    18    25    28    1
    19    28    29   ar
    20    29    30   ar
    21    30    31   ar
    22    31    32    1
    23    31    33   ar
    24    33    34   ar
    25    34    35    1
    26    35    36   am
    27    35    37    2
    28     1     4    1
    29     4     5    1
    30     4     6    1
    31     4     7    1
    32    13    14    2
    33    14    15    1
    34    15    16    1
    35    16    17    2
    36    17     9    1
    37    15    11    1
    38    34    28   ar
    39     2     3    1
    40    36    38    1
    41    36    39    1
@<TRIPOS>MOLECULE
*****
 39 41 0 0 0
SMALL
GASTEIGER

@<TRIPOS>ATOM
      1 C          64.9616   91.5658   14.5847 C.3     1  UNL1        0.1811
      2 O          63.5814   91.5730   13.9974 O.3     1  UNL1       -0.3784
      3 H          63.1075   90.7736   14.2756 H       1  UNL1        0.2106
      4 C          66.3419   91.5588   15.1720 C.3     1  UNL1        0.4197
      5 F          67.7220   91.5517   15.7593 F       1  UNL1       -0.1676
      6 F          66.7589   90.5143   14.1795 F       1  UNL1       -0.1676
      7 F          65.9248   92.6032   16.1645 F       1  UNL1       -0.1676
      8 C          64.6723   90.2523   15.2486 C.3     1  UNL1        0.0807
      9 C          63.0627   84.7752   12.2464 C.2     1  UNL1        0.1857
     10 C          63.7494   85.3238   13.4619 C.2     1  UNL1        0.0359
     11 C          63.8369   86.8070   13.6686 C.2     1  UNL1        0.0095
     12 C          64.4473   87.6338   14.7612 C.2     1  UNL1        0.0124
     13 C          64.2252   89.0793   14.4276 C.2     1  UNL1        0.0568
     14 N          63.4778   89.1458   13.1288 N.2     1  UNL1       -0.2661
     15 C          63.2378   87.7414   12.6597 C.3     1  UNL1        0.1661
     16 C          62.5511   87.1927   11.4442 C.2     1  UNL1        0.1025
     17 N          62.4635   85.7096   11.2376 N.2     1  UNL1       -0.2281
     18 S          62.9751   83.2921   12.0398 S.O2    1  UNL1        0.0233
     19 O          62.4616   83.1274   13.4395 O.2     1  UNL1       -0.1672
     20 O          63.4887   83.4567   10.6401 O.2     1  UNL1       -0.1672
     21 C          62.4521   80.9192   12.9596 C.3     1  UNL1        0.0258
     22 C          62.8876   81.8089   11.8332 C.3     1  UNL1        0.1356
     23 C          63.2355   81.2155   10.5003 C.3     1  UNL1        0.0258
     24 C          65.2509   92.8794   13.9207 C.3     1  UNL1        0.0398
     25 C          66.0094   92.9149   12.6271 C.3     1  UNL1        0.0216
     26 C          64.8579   92.2492   11.9337 C.3     1  UNL1        0.0045
     27 C          67.1610   93.5806   13.3206 C.3     1  UNL1        0.0045
     28 C          66.7679   92.9504   11.3335 C.ar    1  UNL1       -0.0182
     29 C          67.6338   91.7906   10.9397 C.ar    1  UNL1       -0.0018
     30 C          68.3922   91.8260    9.6461 C.ar    1  UNL1        0.0293
     31 C          68.2848   93.0214    8.7462 C.ar    1  UNL1        0.1403
     32 F          69.0433   93.0569    7.4526 F       1  UNL1       -0.2042
     33 C          67.4189   94.1812    9.1400 C.ar    1  UNL1        0.0338
     34 C          66.6605   94.1457   10.4337 C.ar    1  UNL1        0.0514
     35 C          65.7946   95.3055   10.8275 C.2     1  UNL1        0.2425
     36 N          64.6265   95.6944    9.9705 N.am    1  UNL1       -0.3253
     37 O          66.0968   96.0764   12.0782 O.2     1  UNL1       -0.2704
     38 H          64.4281   95.1884    9.1496 H       1  UNL1        0.1453
     39 H          64.0581   96.4556   10.2289 H       1  UNL1        0.1453
@<TRIPOS>BOND
     1    21    22    1
     2    22    23    1
     3    22    18    1
     4    18    19    2
     5    18    20    2
     6    18     9    1
     7     9    10    2
     8    10    11    1
     9    11    12    2
    10    12    13    1
    11    13     8    1
    12     8     1    1
    13     1     2    1
    14     1    24    1
    15    24    25    1
    16    25    26    1
    17    25    27    1
    18    25    28    1
    19    28    29   ar
    20    29    30   ar
    21    30    31   ar
    22    31    32    1
    23    31    33   ar
    24    33    34   ar
    25    34    35    1
    26    35    36   am
    27    35    37    2
    28     1     4    1
    29     4     5    1
    30     4     6    1
    31     4     7    1
    32    13    14    2
    33    14    15    1
    34    15    16    1
    35    16    17    2
    36    17     9    1
    37    15    11    1
    38    34    28   ar
    39     2     3    1
    40    36    38    1
    41    36    39    1
@<TRIPOS>MOLECULE
*****
 39 41 0 0 0
SMALL
GASTEIGER

@<TRIPOS>ATOM
      1 C          62.3129   86.9424   10.9833 C.3     1  UNL1        0.1811
      2 O          63.1452   86.6357   12.1929 O.3     1  UNL1       -0.3784
      3 H          63.0497   87.3511   12.8410 H       1  UNL1        0.2106
      4 C          61.4805   87.2491    9.7736 C.3     1  UNL1        0.4197
      5 F          60.6481   87.5557    8.5641 F       1  UNL1       -0.1676
      6 F          62.6359   86.8893    8.8873 F       1  UNL1       -0.1676
      7 F          60.3251   87.6088   10.6599 F       1  UNL1       -0.1676
      8 C          61.8618   88.2241   11.6186 C.3     1  UNL1        0.0807
      9 C          66.3660   92.2067   13.9541 C.2     1  UNL1        0.1857
     10 C          65.6806   90.8939   14.1923 C.2     1  UNL1        0.0359
     11 C          64.6162   90.4212   13.2470 C.2     1  UNL1        0.0095
     12 C          63.7725   89.1811   13.2244 C.2     1  UNL1        0.0124
     13 C          62.8721   89.2550   12.0269 C.2     1  UNL1        0.0568
     14 N          63.1593   90.5405   11.3095 N.2     1  UNL1       -0.2661
     15 C          64.2372   91.2613   12.0635 C.3     1  UNL1        0.1661
     16 C          64.9227   92.5742   11.8254 C.2     1  UNL1        0.1025
     17 N          65.9871   93.0468   12.7707 N.2     1  UNL1       -0.2281
     18 S          67.4304   92.6794   14.8995 S.O2    1  UNL1        0.0233
     19 O          68.4470   92.5883   13.8003 O.2     1  UNL1       -0.1672
     20 O          66.4137   92.7704   15.9987 O.2     1  UNL1       -0.1672
     21 C          69.2304   92.1640   16.7007 C.3     1  UNL1        0.0258
     22 C          68.4949   93.1521   15.8448 C.3     1  UNL1        0.1356
     23 C          68.8237   94.6128   15.9342 C.3     1  UNL1        0.0258
     24 C          62.7639   85.6607   10.3479 C.3     1  UNL1        0.0398
     25 C          62.8402   84.4049   11.1648 C.3     1  UNL1        0.0216
     26 C          61.6096   84.8187   11.9159 C.3     1  UNL1        0.0045
     27 C          64.0710   83.9911   10.4136 C.3     1  UNL1        0.0045
     28 C          62.9165   83.1491   11.9816 C.ar    1  UNL1       -0.0182
     29 C          62.4530   81.8466   11.3997 C.ar    1  UNL1       -0.0018
     30 C          62.5292   80.5909   12.2166 C.ar    1  UNL1        0.0293
     31 C          63.0690   80.6376   13.6154 C.ar    1  UNL1        0.1403
     32 F          63.1452   79.3819   14.4322 F       1  UNL1       -0.2042
     33 C          63.5325   81.9401   14.1972 C.ar    1  UNL1        0.0338
     34 C          63.4562   83.1959   13.3803 C.ar    1  UNL1        0.0514
     35 C          63.9197   84.4984   13.9622 C.2     1  UNL1        0.2425
     36 N          65.3662   84.8863   13.8752 N.am    1  UNL1       -0.3253
     37 O          62.9369   85.4131   14.6310 O.2     1  UNL1       -0.2704
     38 H          66.0112   84.2859   13.4363 H       1  UNL1        0.1453
     39 H          65.6704   85.7412   14.2571 H       1  UNL1        0.1453
@<TRIPOS>BOND
     1    21    22    1
     2    22    23    1
     3    22    18    1
     4    18    19    2
     5    18    20    2
     6    18     9    1
     7     9    10    2
     8    10    11    1
     9    11    12    2
    10    12    13    1
    11    13     8    1
    12     8     1    1
    13     1     2    1
    14     1    24    1
    15    24    25    1
    16    25    26    1
    17    25    27    1
    18    25    28    1
    19    28    29   ar
    20    29    30   ar
    21    30    31   ar
    22    31    32    1
    23    31    33   ar
    24    33    34   ar
    25    34    35    1
    26    35    36   am
    27    35    37    2
    28     1     4    1
    29     4     5    1
    30     4     6    1
    31     4     7    1
    32    13    14    2
    33    14    15    1
    34    15    16    1
    35    16    17    2
    36    17     9    1
    37    15    11    1
    38    34    28   ar
    39     2     3    1
    40    36    38    1
    41    36    39    1
@<TRIPOS>MOLECULE
*****
 39 41 0 0 0
SMALL
GASTEIGER

@<TRIPOS>ATOM
      1 C          65.3230   91.3418   14.7598 C.3     1  UNL1        0.1811
      2 O          65.7966   90.6915   13.4938 O.3     1  UNL1       -0.3784
      3 H          65.5352   89.7574   13.4928 H       1  UNL1        0.2106
      4 C          64.8494   91.9922   16.0258 C.3     1  UNL1        0.4197
      5 F          64.3757   92.6426   17.2917 F       1  UNL1       -0.1676
      6 F          66.2081   92.5959   16.2240 F       1  UNL1       -0.1676
      7 F          63.4906   91.3886   15.8275 F       1  UNL1       -0.1676
      8 C          64.7268   90.0397   15.2057 C.3     1  UNL1        0.0807
      9 C          61.9966   86.6042   10.4784 C.2     1  UNL1        0.1857
     10 C          62.2805   88.0031   10.9392 C.2     1  UNL1        0.0359
     11 C          63.0129   88.2343   12.2277 C.2     1  UNL1        0.0095
     12 C          63.4324   89.4903   12.9324 C.2     1  UNL1        0.0124
     13 C          64.1400   89.0985   14.1957 C.2     1  UNL1        0.0568
     14 N          64.1579   87.6006   14.2718 N.2     1  UNL1       -0.2661
     15 C          63.4613   87.0664   13.0555 C.3     1  UNL1        0.1661
     16 C          63.1773   85.6674   12.5946 C.2     1  UNL1        0.1025
     17 N          62.4450   85.4363   11.3062 N.2     1  UNL1       -0.2281
     18 S          61.2643   86.3731    9.1900 S.O2    1  UNL1        0.0233
     19 O          62.4605   85.6553    8.6388 O.2     1  UNL1       -0.1672
     20 O          60.0680   87.0909    9.7411 O.2     1  UNL1       -0.1672
     21 C          61.1163   85.2356    6.8588 C.3     1  UNL1        0.0258
     22 C          60.5319   86.1419    7.9014 C.3     1  UNL1        0.1356
     23 C          59.2153   86.8172    7.6555 C.3     1  UNL1        0.0258
     24 C          65.9192   92.6440   14.3139 C.3     1  UNL1        0.0398
     25 C          66.4681   92.7809   12.9246 C.3     1  UNL1        0.0216
     26 C          65.0780   92.6976   12.3672 C.3     1  UNL1        0.0045
     27 C          67.8582   92.8643   13.4821 C.3     1  UNL1        0.0045
     28 C          67.0170   92.9178   11.5354 C.ar    1  UNL1       -0.0182
     29 C          67.7689   91.7802   10.9105 C.ar    1  UNL1       -0.0018
     30 C          68.3177   91.9172    9.5213 C.ar    1  UNL1        0.0293
     31 C          68.1147   93.1917    8.7569 C.ar    1  UNL1        0.1403
     32 F          68.6635   93.3287    7.3677 F       1  UNL1       -0.2042
     33 C          67.3627   94.3293    9.3817 C.ar    1  UNL1        0.0338
     34 C          66.8139   94.1924   10.7710 C.ar    1  UNL1        0.0514
     35 C          66.0619   95.3300   11.3959 C.2     1  UNL1        0.2425
     36 N          64.9765   96.0236   10.6272 N.am    1  UNL1       -0.3253
     37 O          66.3953   95.7739   12.7893 O.2     1  UNL1       -0.2704
     38 H          64.7577   95.7323    9.7126 H       1  UNL1        0.1453
     39 H          64.4830   96.7703   11.0373 H       1  UNL1        0.1453
@<TRIPOS>BOND
     1    21    22    1
     2    22    23    1
     3    22    18    1
     4    18    19    2
     5    18    20    2
     6    18     9    1
     7     9    10    2
     8    10    11    1
     9    11    12    2
    10    12    13    1
    11    13     8    1
    12     8     1    1
    13     1     2    1
    14     1    24    1
    15    24    25    1
    16    25    26    1
    17    25    27    1
    18    25    28    1
    19    28    29   ar
    20    29    30   ar
    21    30    31   ar
    22    31    32    1
    23    31    33   ar
    24    33    34   ar
    25    34    35    1
    26    35    36   am
    27    35    37    2
    28     1     4    1
    29     4     5    1
    30     4     6    1
    31     4     7    1
    32    13    14    2
    33    14    15    1
    34    15    16    1
    35    16    17    2
    36    17     9    1
    37    15    11    1
    38    34    28   ar
    39     2     3    1
    40    36    38    1
    41    36    39    1
@<TRIPOS>MOLECULE
*****
 39 41 0 0 0
SMALL
GASTEIGER

@<TRIPOS>ATOM
      1 C          60.1402   88.2995    9.5497 C.3     1  UNL1        0.1811
      2 O          59.7589   89.7364    9.3499 O.3     1  UNL1       -0.3784
      3 H          59.3544   89.8449    8.4750 H       1  UNL1        0.2106
      4 C          60.5215   86.8625    9.7494 C.3     1  UNL1        0.4197
      5 F          60.9029   85.4257    9.9491 F       1  UNL1       -0.1676
      6 F          60.2218   86.9865   11.2139 F       1  UNL1       -0.1676
      7 F          60.8213   86.7385    8.2849 F       1  UNL1       -0.1676
      8 C          59.6116   87.9696    8.1852 C.3     1  UNL1        0.0807
      9 C          60.1777   92.3892    3.5216 C.2     1  UNL1        0.1857
     10 C          60.9473   91.3842    4.3263 C.2     1  UNL1        0.0359
     11 C          60.2463   90.5601    5.3654 C.2     1  UNL1        0.0095
     12 C          60.7384   89.4998    6.3055 C.2     1  UNL1        0.0124
     13 C          59.5720   89.0256    7.1207 C.2     1  UNL1        0.0568
     14 N          58.3591   89.7927    6.6846 N.2     1  UNL1       -0.2661
     15 C          58.7758   90.7411    5.5997 C.3     1  UNL1        0.1661
     16 C          58.0063   91.7463    4.7949 C.2     1  UNL1        0.1025
     17 N          58.7073   92.5703    3.7559 N.2     1  UNL1       -0.2281
     18 S          60.8787   93.2132    2.4826 S.O2    1  UNL1        0.0233
     19 O          59.5810   93.8813    2.1369 O.2     1  UNL1       -0.1672
     20 O          62.1765   92.5452    2.8283 O.2     1  UNL1       -0.1672
     21 C          62.3659   93.3645    0.3576 C.3     1  UNL1        0.0258
     22 C          61.5796   94.0373    1.4435 C.3     1  UNL1        0.1356
     23 C          61.4943   95.5341    1.4903 C.3     1  UNL1        0.0258
     24 C          60.6688   88.6294   10.9141 C.3     1  UNL1        0.0398
     25 C          61.8088   89.5927   11.0640 C.3     1  UNL1        0.0216
     26 C          62.6920   88.6698   10.2779 C.3     1  UNL1        0.0045
     27 C          60.9255   90.5157   11.8502 C.3     1  UNL1        0.0045
     28 C          62.9488   90.5560   11.2140 C.ar    1  UNL1       -0.0182
     29 C          63.2798   91.5054   10.1008 C.ar    1  UNL1       -0.0018
     30 C          64.4198   92.4686   10.2508 C.ar    1  UNL1        0.0293
     31 C          65.2288   92.4825   11.5139 C.ar    1  UNL1        0.1403
     32 F          66.3688   93.4457   11.6638 F       1  UNL1       -0.2042
     33 C          64.8978   91.5331   12.6270 C.ar    1  UNL1        0.0338
     34 C          63.7577   90.5698   12.4770 C.ar    1  UNL1        0.0514
     35 C          63.4267   89.6204   13.5902 C.2     1  UNL1        0.2425
     36 N          62.6981   90.1138   14.8050 N.am    1  UNL1       -0.3253
     37 O          63.8242   88.1777   13.4885 O.2     1  UNL1       -0.2704
     38 H          62.4371   91.0608   14.8717 H       1  UNL1        0.1453
     39 H          62.4808   89.4907   15.5356 H       1  UNL1        0.1453
@<TRIPOS>BOND
     1    21    22    1
     2    22    23    1
     3    22    18    1
     4    18    19    2
     5    18    20    2
     6    18     9    1
     7     9    10    2
     8    10    11    1
     9    11    12    2
    10    12    13    1
    11    13     8    1
    12     8     1    1
    13     1     2    1
    14     1    24    1
    15    24    25    1
    16    25    26    1
    17    25    27    1
    18    25    28    1
    19    28    29   ar
    20    29    30   ar
    21    30    31   ar
    22    31    32    1
    23    31    33   ar
    24    33    34   ar
    25    34    35    1
    26    35    36   am
    27    35    37    2
    28     1     4    1
    29     4     5    1
    30     4     6    1
    31     4     7    1
    32    13    14    2
    33    14    15    1
    34    15    16    1
    35    16    17    2
    36    17     9    1
    37    15    11    1
    38    34    28   ar
    39     2     3    1
    40    36    38    1
    41    36    39    1
@<TRIPOS>MOLECULE
*****
 39 41 0 0 0
SMALL
GASTEIGER

@<TRIPOS>ATOM
      1 C          65.6880   92.0072   13.6218 C.3     1  UNL1        0.1811
      2 O          64.9342   92.0726   12.3266 O.3     1  UNL1       -0.3784
      3 H          64.0641   91.6584   12.4376 H       1  UNL1        0.2106
      4 C          66.4418   91.9419   14.9170 C.3     1  UNL1        0.4197
      5 F          67.1957   91.8765   16.2121 F       1  UNL1       -0.1676
      6 F          65.1986   92.3312   15.6604 F       1  UNL1       -0.1676
      7 F          67.6851   91.5525   14.1737 F       1  UNL1       -0.1676
      8 C          64.5274   91.3047   14.2618 C.3     1  UNL1        0.0807
      9 C          62.9111   85.2826   12.6110 C.2     1  UNL1        0.1857
     10 C          63.6221   86.0948   13.6526 C.2     1  UNL1        0.0359
     11 C          63.6958   87.5870   13.5188 C.2     1  UNL1        0.0095
     12 C          64.3237   88.6422   14.3806 C.2     1  UNL1        0.0124
     13 C          64.0744   89.9743   13.7377 C.2     1  UNL1        0.0568
     14 N          63.2925   89.7425   12.4788 N.2     1  UNL1       -0.2661
     15 C          63.0586   88.2671   12.3435 C.3     1  UNL1        0.1661
     16 C          62.3475   87.4548   11.3019 C.2     1  UNL1        0.1025
     17 N          62.2738   85.9627   11.4357 N.2     1  UNL1       -0.2281
     18 S          62.8374   83.7905   12.7448 S.O2    1  UNL1        0.0233
     19 O          62.9166   83.9203   14.2371 O.2     1  UNL1       -0.1672
     20 O          62.7582   83.6605   11.2525 O.2     1  UNL1       -0.1672
     21 C          62.3379   81.6819   14.1782 C.3     1  UNL1        0.0258
     22 C          62.7637   82.2982   12.8787 C.3     1  UNL1        0.1356
     23 C          63.1158   81.4224   11.7130 C.3     1  UNL1        0.0258
     24 C          66.8485   92.7097   12.9818 C.3     1  UNL1        0.0398
     25 C          66.6369   93.5376   11.7490 C.3     1  UNL1        0.0216
     26 C          66.7722   92.3083   10.9003 C.3     1  UNL1        0.0045
     27 C          66.5016   94.7670   12.5978 C.3     1  UNL1        0.0045
     28 C          66.4253   94.3655   10.5162 C.ar    1  UNL1       -0.0182
     29 C          65.4244   95.4827   10.5256 C.ar    1  UNL1       -0.0018
     30 C          65.2129   96.3105    9.2928 C.ar    1  UNL1        0.0293
     31 C          66.0022   96.0212    8.0505 C.ar    1  UNL1        0.1403
     32 F          65.7906   96.8490    6.8176 F       1  UNL1       -0.2042
     33 C          67.0031   94.9040    8.0410 C.ar    1  UNL1        0.0338
     34 C          67.2147   94.0761    9.2739 C.ar    1  UNL1        0.0514
     35 C          68.2156   92.9590    9.2645 C.2     1  UNL1        0.2425
     36 N          69.6226   93.2087    9.7206 N.am    1  UNL1       -0.3253
     37 O          67.8095   91.5921    8.7990 O.2     1  UNL1       -0.2704
     38 H          69.8891   94.1059   10.0261 H       1  UNL1        0.1453
     39 H          70.2796   92.4755    9.7144 H       1  UNL1        0.1453
@<TRIPOS>BOND
     1    21    22    1
     2    22    23    1
     3    22    18    1
     4    18    19    2
     5    18    20    2
     6    18     9    1
     7     9    10    2
     8    10    11    1
     9    11    12    2
    10    12    13    1
    11    13     8    1
    12     8     1    1
    13     1     2    1
    14     1    24    1
    15    24    25    1
    16    25    26    1
    17    25    27    1
    18    25    28    1
    19    28    29   ar
    20    29    30   ar
    21    30    31   ar
    22    31    32    1
    23    31    33   ar
    24    33    34   ar
    25    34    35    1
    26    35    36   am
    27    35    37    2
    28     1     4    1
    29     4     5    1
    30     4     6    1
    31     4     7    1
    32    13    14    2
    33    14    15    1
    34    15    16    1
    35    16    17    2
    36    17     9    1
    37    15    11    1
    38    34    28   ar
    39     2     3    1
    40    36    38    1
    41    36    39    1
@<TRIPOS>MOLECULE
*****
 39 41 0 0 0
SMALL
GASTEIGER

@<TRIPOS>ATOM
      1 C          63.0809   90.4538   12.5284 C.3     1  UNL1        0.1811
      2 O          61.9191   89.5993   12.9406 O.3     1  UNL1       -0.3784
      3 H          62.1902   89.0118   13.6633 H       1  UNL1        0.2106
      4 C          64.2427   91.3083   12.1160 C.3     1  UNL1        0.4197
      5 F          65.4045   92.1628   11.7037 F       1  UNL1       -0.1676
      6 F          63.4028   91.9316   11.0409 F       1  UNL1       -0.1676
      7 F          65.0827   90.6850   13.1911 F       1  UNL1       -0.1676
      8 C          63.9363   89.7923   13.5679 C.3     1  UNL1        0.0807
      9 C          63.4218   83.3638   13.6817 C.2     1  UNL1        0.1857
     10 C          63.2610   84.5681   12.8020 C.2     1  UNL1        0.0359
     11 C          63.5411   85.9374   13.3467 C.2     1  UNL1        0.0095
     12 C          63.4704   87.2996   12.7226 C.2     1  UNL1        0.0124
     13 C          63.8674   88.3064   13.7613 C.2     1  UNL1        0.0568
     14 N          64.1835   87.5665   15.0271 N.2     1  UNL1       -0.2661
     15 C          63.9818   86.1024   14.7710 C.3     1  UNL1        0.1661
     16 C          64.1426   84.8980   15.6506 C.2     1  UNL1        0.1025
     17 N          63.8625   83.5287   15.1059 N.2     1  UNL1       -0.2281
     18 S          63.1417   81.9945   13.1370 S.O2    1  UNL1        0.0233
     19 O          63.5010   81.3934   14.4634 O.2     1  UNL1       -0.1672
     20 O          62.7824   82.5957   11.8105 O.2     1  UNL1       -0.1672
     21 C          63.0180   80.3552   11.1252 C.3     1  UNL1        0.0258
     22 C          62.8617   80.6252   12.5923 C.3     1  UNL1        0.1356
     23 C          62.4253   79.5259   13.5149 C.3     1  UNL1        0.0258
     24 C          62.2255   91.1153   11.4888 C.3     1  UNL1        0.0398
     25 C          61.4426   90.2801   10.5194 C.3     1  UNL1        0.0216
     26 C          60.1806   90.9709   10.9436 C.3     1  UNL1        0.0045
     27 C          62.7048   89.5894   10.0952 C.3     1  UNL1        0.0045
     28 C          60.6598   89.4451    9.5500 C.ar    1  UNL1       -0.0182
     29 C          60.5481   89.8681    8.1152 C.ar    1  UNL1       -0.0018
     30 C          59.7653   89.0331    7.1458 C.ar    1  UNL1        0.0293
     31 C          59.0940   87.7749    7.6112 C.ar    1  UNL1        0.1403
     32 F          58.3111   86.9399    6.6418 F       1  UNL1       -0.2042
     33 C          59.2056   87.3519    9.0459 C.ar    1  UNL1        0.0338
     34 C          59.9885   88.1870   10.0154 C.ar    1  UNL1        0.0514
     35 C          60.1002   87.7640   11.4501 C.2     1  UNL1        0.2425
     36 N          59.2909   88.4618   12.5029 N.am    1  UNL1       -0.3253
     37 O          61.0210   86.6432   11.8321 O.2     1  UNL1       -0.2704
     38 H          58.6865   89.1973   12.2522 H       1  UNL1        0.1453
     39 H          59.3642   88.1841   13.4446 H       1  UNL1        0.1453
@<TRIPOS>BOND
     1    21    22    1
     2    22    23    1
     3    22    18    1
     4    18    19    2
     5    18    20    2
     6    18     9    1
     7     9    10    2
     8    10    11    1
     9    11    12    2
    10    12    13    1
    11    13     8    1
    12     8     1    1
    13     1     2    1
    14     1    24    1
    15    24    25    1
    16    25    26    1
    17    25    27    1
    18    25    28    1
    19    28    29   ar
    20    29    30   ar
    21    30    31   ar
    22    31    32    1
    23    31    33   ar
    24    33    34   ar
    25    34    35    1
    26    35    36   am
    27    35    37    2
    28     1     4    1
    29     4     5    1
    30     4     6    1
    31     4     7    1
    32    13    14    2
    33    14    15    1
    34    15    16    1
    35    16    17    2
    36    17     9    1
    37    15    11    1
    38    34    28   ar
    39     2     3    1
    40    36    38    1
    41    36    39    1
@<TRIPOS>MOLECULE
*****
 39 41 0 0 0
SMALL
GASTEIGER

@<TRIPOS>ATOM
      1 C          60.2063   87.5776    8.6865 C.3     1  UNL1        0.1811
      2 O          60.4313   88.8295    9.4814 O.3     1  UNL1       -0.3784
      3 H          59.7501   89.4824    9.2562 H       1  UNL1        0.2106
      4 C          59.9813   86.3256    7.8915 C.3     1  UNL1        0.4197
      5 F          59.7563   85.0736    7.0965 F       1  UNL1       -0.1676
      6 F          58.5025   86.4541    8.1076 F       1  UNL1       -0.1676
      7 F          61.4600   86.1971    7.6754 F       1  UNL1       -0.1676
      8 C          59.0094   88.2057    8.0361 C.3     1  UNL1        0.0807
      9 C          60.5322   92.4231    3.3995 C.2     1  UNL1        0.1857
     10 C          61.1071   91.3875    4.3198 C.2     1  UNL1        0.0359
     11 C          60.2126   90.6519    5.2732 C.2     1  UNL1        0.0095
     12 C          60.4912   89.5865    6.2918 C.2     1  UNL1        0.0124
     13 C          59.1940   89.2283    6.9543 C.2     1  UNL1        0.0568
     14 N          58.1138   90.0722    6.3453 N.2     1  UNL1       -0.2661
     15 C          58.7433   90.9520    5.3063 C.3     1  UNL1        0.1661
     16 C          58.1685   91.9877    4.3859 C.2     1  UNL1        0.1025
     17 N          59.0629   92.7233    3.4326 N.2     1  UNL1       -0.2281
     18 S          61.4267   93.1587    2.4462 S.O2    1  UNL1        0.0233
     19 O          62.5320   92.1860    2.7328 O.2     1  UNL1       -0.1672
     20 O          60.3214   94.1314    2.1595 O.2     1  UNL1       -0.1672
     21 C          63.7110   93.3942    1.2310 C.3     1  UNL1        0.0258
     22 C          62.3213   93.8942    1.4928 C.3     1  UNL1        0.1356
     23 C          61.8260   95.1298    0.8014 C.3     1  UNL1        0.0258
     24 C          61.4031   86.9495    9.3368 C.3     1  UNL1        0.0398
     25 C          62.0053   87.5734   10.5609 C.3     1  UNL1        0.0216
     26 C          60.9434   86.9369   11.4077 C.3     1  UNL1        0.0045
     27 C          63.0673   88.2098    9.7140 C.3     1  UNL1        0.0045
     28 C          62.6075   88.1972   11.7849 C.ar    1  UNL1       -0.0182
     29 C          63.4655   87.3755   12.7006 C.ar    1  UNL1       -0.0018
     30 C          64.0677   87.9993   13.9246 C.ar    1  UNL1        0.0293
     31 C          63.8119   89.4448   14.2329 C.ar    1  UNL1        0.1403
     32 F          64.4141   90.0686   15.4569 F       1  UNL1       -0.2042
     33 C          62.9539   90.2665   13.3171 C.ar    1  UNL1        0.0338
     34 C          62.3517   89.6427   12.0931 C.ar    1  UNL1        0.0514
     35 C          61.4936   90.4643   11.1773 C.2     1  UNL1        0.2425
     36 N          60.0525   90.7061   11.5161 N.am    1  UNL1       -0.3253
     37 O          62.0767   91.0443    9.9229 O.2     1  UNL1       -0.2704
     38 H          59.6698   90.3254   12.3394 H       1  UNL1        0.1453
     39 H          59.4893   91.2454   10.9150 H       1  UNL1        0.1453
@<TRIPOS>BOND
     1    21    22    1
     2    22    23    1
     3    22    18    1
     4    18    19    2
     5    18    20    2
     6    18     9    1
     7     9    10    2
     8    10    11    1
     9    11    12    2
    10    12    13    1
    11    13     8    1
    12     8     1    1
    13     1     2    1
    14     1    24    1
    15    24    25    1
    16    25    26    1
    17    25    27    1
    18    25    28    1
    19    28    29   ar
    20    29    30   ar
    21    30    31   ar
    22    31    32    1
    23    31    33   ar
    24    33    34   ar
    25    34    35    1
    26    35    36   am
    27    35    37    2
    28     1     4    1
    29     4     5    1
    30     4     6    1
    31     4     7    1
    32    13    14    2
    33    14    15    1
    34    15    16    1
    35    16    17    2
    36    17     9    1
    37    15    11    1
    38    34    28   ar
    39     2     3    1
    40    36    38    1
    41    36    39    1
