@<TRIPOS>MOLECULE
*****
 32 36 0 0 0
SMALL
GASTEIGER

@<TRIPOS>ATOM
      1 C          62.7709   86.2623   10.5780 C.3     1  UNL1        0.1211
      2 C          62.8710   86.5328    9.1060 C.3     1  UNL1        0.0804
      3 N          62.9665   85.3906    8.1384 N.3     1  UNL1       -0.2969
      4 C          62.9619   83.9780    8.6428 C.3     1  UNL1        0.0714
      5 C          62.8619   83.7075   10.1148 C.3     1  UNL1        0.0490
      6 C          62.7664   84.8497   11.0824 C.3     1  UNL1        0.1224
      7 O          62.6651   85.8841   12.1641 O.3     1  UNL1       -0.3492
      8 C          62.5862   85.1711   13.4814 C.3     1  UNL1        0.1687
      9 C          62.6387   83.6960   13.2140 C.ar    1  UNL1        0.0079
     10 C          62.5995   82.5081   14.1289 C.ar    1  UNL1        0.0299
     11 C          62.6716   81.1214   13.5613 C.ar    1  UNL1        0.1671
     12 F          62.6324   79.9335   14.4762 F       1  UNL1       -0.2018
     13 C          62.7830   80.9229   12.0787 C.ar    1  UNL1        0.1671
     14 F          62.8552   79.5363   11.5110 F       1  UNL1       -0.2018
     15 C          62.8222   82.1108   11.1636 C.ar    1  UNL1        0.0297
     16 C          62.7501   83.4974   11.7313 C.ar    1  UNL1        0.0033
     17 H          63.8362   85.5155    7.6204 H       1  UNL1        0.1233
     18 N          61.6502   88.4797   11.3381 N.am    1  UNL1       -0.2770
     19 C          62.6754   87.4046   11.5457 C.2     1  UNL1        0.2294
     20 O          63.6051   87.4716   12.7209 O.2     1  UNL1       -0.2747
     21 C          60.7205   88.4125   10.1628 C.3     1  UNL1        0.0758
     22 C          59.6695   87.6852    9.3777 C.3     1  UNL1        0.0215
     23 C          60.1613   89.0236    8.9123 C.3     1  UNL1        0.0215
     24 C          61.5547   89.6218   12.3056 C.3     1  UNL1        0.1197
     25 C          65.5835   92.7021   11.1741 C.3     1  UNL1        0.0307
     26 C          64.8099   91.8878   12.1683 C.ar    1  UNL1       -0.0260
     27 C          65.2772   91.7993   13.5909 C.ar    1  UNL1       -0.0046
     28 C          64.5036   90.9849   14.5852 C.ar    1  UNL1       -0.0006
     29 C          63.2627   90.2591   14.1568 C.ar    1  UNL1       -0.0029
     30 C          62.7955   90.3476   12.7341 C.ar    1  UNL1       -0.0066
     31 C          63.5691   91.1619   11.7399 C.ar    1  UNL1       -0.0281
     32 C          63.1019   91.2504   10.3172 C.3     1  UNL1        0.0304
@<TRIPOS>BOND
     1    25    26    1
     2    26    27   ar
     3    27    28   ar
     4    28    29   ar
     5    29    30   ar
     6    30    24    1
     7    24    18    1
     8    18    19   am
     9    19    20    2
    10     1    19    1
    11     1     2    1
    12     2     3    1
    13     3     4    1
    14     4     5    1
    15     6     5    1
    16     6     7    1
    17     7     8    1
    18     8     9    1
    19     9    10   ar
    20    10    11   ar
    21    11    12    1
    22    11    13   ar
    23    13    14    1
    24    13    15   ar
    25    15    16   ar
    26    18    21    1
    27    21    22    1
    28    22    23    1
    29    30    31   ar
    30    31    32    1
    31    31    26   ar
    32     6     1    1
    33    16     9   ar
    34    23    21    1
    35    16     6    1
    36     3    17    1
@<TRIPOS>MOLECULE
*****
 32 36 0 0 0
SMALL
GASTEIGER

@<TRIPOS>ATOM
      1 C          62.7915   87.3475   11.4959 C.3     1  UNL1        0.1211
      2 C          62.3172   87.8557   10.1667 C.3     1  UNL1        0.0804
      3 N          61.9135   86.8878    9.0943 N.3     1  UNL1       -0.2969
      4 C          61.9840   85.4116    9.3511 C.3     1  UNL1        0.0714
      5 C          62.4583   84.9034   10.6802 C.3     1  UNL1        0.0490
      6 C          62.8620   85.8713   11.7526 C.3     1  UNL1        0.1224
      7 O          63.2964   86.7142   12.9150 O.3     1  UNL1       -0.3492
      8 C          63.6880   85.7947   14.0336 C.3     1  UNL1        0.1687
      9 C          63.4956   84.3836   13.5627 C.ar    1  UNL1        0.0079
     10 C          63.7193   83.0617   14.2353 C.ar    1  UNL1        0.0299
     11 C          63.4325   81.7871   13.4983 C.ar    1  UNL1        0.1671
     12 F          63.6562   80.4652   14.1710 F       1  UNL1       -0.2018
     13 C          62.9220   81.8344   12.0887 C.ar    1  UNL1        0.1671
     14 F          62.6353   80.5598   11.3517 F       1  UNL1       -0.2018
     15 C          62.6983   83.1563   11.4159 C.ar    1  UNL1        0.0297
     16 C          62.9851   84.4309   12.1529 C.ar    1  UNL1        0.0033
     17 H          62.5102   87.0753    8.2886 H       1  UNL1        0.1233
     18 N          62.3592   89.5322   12.8338 N.am    1  UNL1       -0.2770
     19 C          63.1952   88.3154   12.5684 C.2     1  UNL1        0.2294
     20 O          64.4349   88.0665   13.3753 O.2     1  UNL1       -0.2747
     21 C          61.1195   89.7811   12.0268 C.3     1  UNL1        0.0758
     22 C          59.6686   89.5119   11.7581 C.3     1  UNL1        0.0215
     23 C          60.4233   90.4815   10.8978 C.3     1  UNL1        0.0215
     24 C          62.7629   90.5001   13.9062 C.3     1  UNL1        0.1197
     25 C          66.8583   92.7893   16.1396 C.3     1  UNL1        0.0307
     26 C          66.1013   92.3998   14.9045 C.ar    1  UNL1       -0.0260
     27 C          66.6349   92.7655   13.5512 C.ar    1  UNL1       -0.0046
     28 C          65.8779   92.3760   12.3162 C.ar    1  UNL1       -0.0006
     29 C          64.5872   91.6209   12.4345 C.ar    1  UNL1       -0.0029
     30 C          64.0536   91.2552   13.7879 C.ar    1  UNL1       -0.0066
     31 C          64.8106   91.6447   15.0229 C.ar    1  UNL1       -0.0281
     32 C          64.2770   91.2790   16.3763 C.3     1  UNL1        0.0304
@<TRIPOS>BOND
     1    25    26    1
     2    26    27   ar
     3    27    28   ar
     4    28    29   ar
     5    29    30   ar
     6    30    24    1
     7    24    18    1
     8    18    19   am
     9    19    20    2
    10     1    19    1
    11     1     2    1
    12     2     3    1
    13     3     4    1
    14     4     5    1
    15     6     5    1
    16     6     7    1
    17     7     8    1
    18     8     9    1
    19     9    10   ar
    20    10    11   ar
    21    11    12    1
    22    11    13   ar
    23    13    14    1
    24    13    15   ar
    25    15    16   ar
    26    18    21    1
    27    21    22    1
    28    22    23    1
    29    30    31   ar
    30    31    32    1
    31    31    26   ar
    32     6     1    1
    33    16     9   ar
    34    23    21    1
    35    16     6    1
    36     3    17    1
@<TRIPOS>MOLECULE
*****
 32 36 0 0 0
SMALL
GASTEIGER

@<TRIPOS>ATOM
      1 C          62.2733   88.9722   12.2232 C.3     1  UNL1        0.1211
      2 C          61.3056   89.5848   11.2547 C.3     1  UNL1        0.0804
      3 N          60.6211   88.7254   10.2335 N.3     1  UNL1       -0.2969
      4 C          60.9044   87.2533   10.1809 C.3     1  UNL1        0.0714
      5 C          61.8722   86.6407   11.1495 C.3     1  UNL1        0.0490
      6 C          62.5566   87.5002   12.1706 C.3     1  UNL1        0.1224
      7 O          63.3128   88.2291   13.2416 O.3     1  UNL1       -0.3492
      8 C          64.1616   87.2305   13.9712 C.3     1  UNL1        0.1687
      9 C          63.9301   85.8844   13.3512 C.ar    1  UNL1        0.0079
     10 C          64.4942   84.5285   13.6562 C.ar    1  UNL1        0.0299
     11 C          64.0665   83.3391   12.8484 C.ar    1  UNL1        0.1671
     12 F          64.6307   81.9832   13.1533 F       1  UNL1       -0.2018
     13 C          63.0745   83.5058   11.7356 C.ar    1  UNL1        0.1671
     14 F          62.6468   82.3165   10.9278 F       1  UNL1       -0.2018
     15 C          62.5103   84.8617   11.4306 C.ar    1  UNL1        0.0297
     16 C          62.9380   86.0511   12.2384 C.ar    1  UNL1        0.0033
     17 H          60.8644   89.1049    9.3185 H       1  UNL1        0.1233
     18 N          63.7574   91.0232   12.8074 N.am    1  UNL1       -0.2770
     19 C          62.9578   89.8317   13.2445 C.2     1  UNL1        0.2294
     20 O          62.8426   89.4997   14.7027 O.2     1  UNL1       -0.2747
     21 C          63.8725   91.3552   11.3491 C.3     1  UNL1        0.0758
     22 C          63.3900   91.1938    9.9380 C.3     1  UNL1        0.0215
     23 C          64.5545   92.0916   10.2344 C.3     1  UNL1        0.0215
     24 C          64.4418   91.8826   13.8286 C.3     1  UNL1        0.1197
     25 C          68.8364   92.5621   16.5168 C.3     1  UNL1        0.0307
     26 C          68.1372   92.2827   15.2194 C.ar    1  UNL1       -0.0260
     27 C          68.9360   92.0636   13.9690 C.ar    1  UNL1       -0.0046
     28 C          68.2368   91.7842   12.6716 C.ar    1  UNL1       -0.0006
     29 C          66.7388   91.7239   12.6248 C.ar    1  UNL1       -0.0029
     30 C          65.9399   91.9429   13.8754 C.ar    1  UNL1       -0.0066
     31 C          66.6391   92.2223   15.1727 C.ar    1  UNL1       -0.0281
     32 C          65.8402   92.4414   16.4232 C.3     1  UNL1        0.0304
@<TRIPOS>BOND
     1    25    26    1
     2    26    27   ar
     3    27    28   ar
     4    28    29   ar
     5    29    30   ar
     6    30    24    1
     7    24    18    1
     8    18    19   am
     9    19    20    2
    10     1    19    1
    11     1     2    1
    12     2     3    1
    13     3     4    1
    14     4     5    1
    15     6     5    1
    16     6     7    1
    17     7     8    1
    18     8     9    1
    19     9    10   ar
    20    10    11   ar
    21    11    12    1
    22    11    13   ar
    23    13    14    1
    24    13    15   ar
    25    15    16   ar
    26    18    21    1
    27    21    22    1
    28    22    23    1
    29    30    31   ar
    30    31    32    1
    31    31    26   ar
    32     6     1    1
    33    16     9   ar
    34    23    21    1
    35    16     6    1
    36     3    17    1
@<TRIPOS>MOLECULE
*****
 32 36 0 0 0
SMALL
GASTEIGER

@<TRIPOS>ATOM
      1 C          63.0686   88.9280   11.9110 C.3     1  UNL1        0.1211
      2 C          62.2153   88.9888   10.6789 C.3     1  UNL1        0.0804
      3 N          62.1868   90.2369    9.8473 N.3     1  UNL1       -0.2969
      4 C          63.0114   91.4241   10.2480 C.3     1  UNL1        0.0714
      5 C          63.8646   91.3633   11.4801 C.3     1  UNL1        0.0490
      6 C          63.8932   90.1152   12.3116 C.3     1  UNL1        0.1224
      7 O          64.0229   88.9419   13.2373 O.3     1  UNL1       -0.3492
      8 C          64.9764   89.3185   14.3323 C.3     1  UNL1        0.1687
      9 C          65.4360   90.7245   14.0835 C.ar    1  UNL1        0.0079
     10 C          66.3776   91.6201   14.8327 C.ar    1  UNL1        0.0299
     11 C          66.6498   93.0081   14.3331 C.ar    1  UNL1        0.1671
     12 F          67.5913   93.9036   15.0823 F       1  UNL1       -0.2018
     13 C          65.9803   93.5004   13.0844 C.ar    1  UNL1        0.1671
     14 F          66.2525   94.8883   12.5848 F       1  UNL1       -0.2018
     15 C          65.0387   92.6048   12.3351 C.ar    1  UNL1        0.0297
     16 C          64.7665   91.2169   12.8346 C.ar    1  UNL1        0.0033
     17 H          61.2161   90.5490    9.8180 H       1  UNL1        0.1233
     18 N          62.6745   86.3706   12.1450 N.am    1  UNL1       -0.2770
     19 C          63.0972   87.6799   12.7426 C.2     1  UNL1        0.2294
     20 O          63.5484   87.7411   14.1718 O.2     1  UNL1       -0.2747
     21 C          62.2232   86.3095   10.7157 C.3     1  UNL1        0.0758
     22 C          61.1257   86.1502    9.7057 C.3     1  UNL1        0.0215
     23 C          62.5390   86.3629    9.2504 C.3     1  UNL1        0.0215
     24 C          62.7031   85.1226   12.9765 C.3     1  UNL1        0.1197
     25 C          62.3819   79.9372   13.0720 C.3     1  UNL1        0.0307
     26 C          62.7893   81.2009   12.3739 C.ar    1  UNL1       -0.0260
     27 C          63.4433   81.1356   11.0256 C.ar    1  UNL1       -0.0046
     28 C          63.8507   82.3993   10.3276 C.ar    1  UNL1       -0.0006
     29 C          63.6039   83.7283   10.9779 C.ar    1  UNL1       -0.0029
     30 C          62.9498   83.7936   12.3262 C.ar    1  UNL1       -0.0066
     31 C          62.5425   82.5299   13.0242 C.ar    1  UNL1       -0.0281
     32 C          61.8884   82.5952   14.3725 C.3     1  UNL1        0.0304
@<TRIPOS>BOND
     1    25    26    1
     2    26    27   ar
     3    27    28   ar
     4    28    29   ar
     5    29    30   ar
     6    30    24    1
     7    24    18    1
     8    18    19   am
     9    19    20    2
    10     1    19    1
    11     1     2    1
    12     2     3    1
    13     3     4    1
    14     4     5    1
    15     6     5    1
    16     6     7    1
    17     7     8    1
    18     8     9    1
    19     9    10   ar
    20    10    11   ar
    21    11    12    1
    22    11    13   ar
    23    13    14    1
    24    13    15   ar
    25    15    16   ar
    26    18    21    1
    27    21    22    1
    28    22    23    1
    29    30    31   ar
    30    31    32    1
    31    31    26   ar
    32     6     1    1
    33    16     9   ar
    34    23    21    1
    35    16     6    1
    36     3    17    1
@<TRIPOS>MOLECULE
*****
 32 36 0 0 0
SMALL
GASTEIGER

@<TRIPOS>ATOM
      1 C          64.2654   90.4480   13.2858 C.3     1  UNL1        0.1211
      2 C          64.8059   90.2390   14.6693 C.3     1  UNL1        0.0804
      3 N          64.6951   88.8932   15.3224 N.3     1  UNL1       -0.2969
      4 C          64.0440   87.7564   14.5919 C.3     1  UNL1        0.0714
      5 C          63.5036   87.9654   13.2083 C.3     1  UNL1        0.0490
      6 C          63.6143   89.3112   12.5553 C.3     1  UNL1        0.1224
      7 O          63.6525   90.5937   11.7781 O.3     1  UNL1       -0.3492
      8 C          63.0026   90.3495   10.4485 C.3     1  UNL1        0.1687
      9 C          62.5627   88.9161   10.4038 C.ar    1  UNL1        0.0079
     10 C          61.8668   88.1124    9.3457 C.ar    1  UNL1        0.0299
     11 C          61.5489   86.6668    9.5896 C.ar    1  UNL1        0.1671
     12 F          60.8530   85.8631    8.5316 F       1  UNL1       -0.2018
     13 C          61.9269   86.0252   10.8917 C.ar    1  UNL1        0.1671
     14 F          61.6090   84.5797   11.1356 F       1  UNL1       -0.2018
     15 C          62.6229   86.8289   11.9498 C.ar    1  UNL1        0.0297
     16 C          62.9408   88.2744   11.7059 C.ar    1  UNL1        0.0033
     17 H          64.1698   89.0275   16.1863 H       1  UNL1        0.1233
     18 N          65.6406   92.5899   12.7648 N.am    1  UNL1       -0.2770
     19 C          64.3761   91.7939   12.6327 C.2     1  UNL1        0.2294
     20 O          63.2224   92.3437   11.8475 O.2     1  UNL1       -0.2747
     21 C          66.7944   92.0400   13.5500 C.3     1  UNL1        0.0758
     22 C          67.3808   91.5909   14.8556 C.3     1  UNL1        0.0215
     23 C          68.2064   91.5368   13.6044 C.3     1  UNL1        0.0215
     24 C          65.7514   93.9356   12.1117 C.3     1  UNL1        0.1197
     25 C          67.2157   96.8555    8.0706 C.3     1  UNL1        0.0307
     26 C          67.2206   95.5408    8.7929 C.ar    1  UNL1       -0.0260
     27 C          67.9626   94.3714    8.2168 C.ar    1  UNL1       -0.0046
     28 C          67.9676   93.0567    8.9390 C.ar    1  UNL1       -0.0006
     29 C          67.2305   92.9114   10.2373 C.ar    1  UNL1       -0.0029
     30 C          66.4885   94.0809   10.8134 C.ar    1  UNL1       -0.0066
     31 C          66.4835   95.3955   10.0912 C.ar    1  UNL1       -0.0281
     32 C          65.7415   96.5650   10.6673 C.3     1  UNL1        0.0304
@<TRIPOS>BOND
     1    25    26    1
     2    26    27   ar
     3    27    28   ar
     4    28    29   ar
     5    29    30   ar
     6    30    24    1
     7    24    18    1
     8    18    19   am
     9    19    20    2
    10     1    19    1
    11     1     2    1
    12     2     3    1
    13     3     4    1
    14     4     5    1
    15     6     5    1
    16     6     7    1
    17     7     8    1
    18     8     9    1
    19     9    10   ar
    20    10    11   ar
    21    11    12    1
    22    11    13   ar
    23    13    14    1
    24    13    15   ar
    25    15    16   ar
    26    18    21    1
    27    21    22    1
    28    22    23    1
    29    30    31   ar
    30    31    32    1
    31    31    26   ar
    32     6     1    1
    33    16     9   ar
    34    23    21    1
    35    16     6    1
    36     3    17    1
@<TRIPOS>MOLECULE
*****
 32 36 0 0 0
SMALL
GASTEIGER

@<TRIPOS>ATOM
      1 C          63.9307   86.9324   13.6484 C.3     1  UNL1        0.1211
      2 C          64.5926   87.8811   14.6033 C.3     1  UNL1        0.0804
      3 N          64.3422   89.3557   14.4899 N.3     1  UNL1       -0.2969
      4 C          63.4299   89.8815   13.4216 C.3     1  UNL1        0.0714
      5 C          62.7680   88.9328   12.4667 C.3     1  UNL1        0.0490
      6 C          63.0184   87.4582   12.5801 C.3     1  UNL1        0.1224
      7 O          63.1725   85.9661   12.5708 O.3     1  UNL1       -0.3492
      8 C          62.3356   85.4207   11.4518 C.3     1  UNL1        0.1687
      9 C          61.6643   86.5757   10.7695 C.ar    1  UNL1        0.0079
     10 C          60.7233   86.6434    9.6035 C.ar    1  UNL1        0.0299
     11 C          60.2042   87.9704    9.1346 C.ar    1  UNL1        0.1671
     12 F          59.2632   88.0382    7.9685 F       1  UNL1       -0.2018
     13 C          60.6263   89.2296    9.8319 C.ar    1  UNL1        0.1671
     14 F          60.1073   90.5566    9.3631 F       1  UNL1       -0.2018
     15 C          61.5673   89.1619   10.9981 C.ar    1  UNL1        0.0297
     16 C          62.0863   87.8350   11.4669 C.ar    1  UNL1        0.0033
     17 H          65.2498   89.7983   14.3461 H       1  UNL1        0.1233
     18 N          63.6995   84.7057   14.9670 N.am    1  UNL1       -0.2770
     19 C          64.1811   85.4577   13.7618 C.2     1  UNL1        0.2294
     20 O          64.9131   84.7352   12.6700 O.2     1  UNL1       -0.2747
     21 C          62.9675   85.4284   16.0588 C.3     1  UNL1        0.0758
     22 C          62.9880   86.2429   17.3183 C.3     1  UNL1        0.0215
     23 C          61.6791   85.8655   16.6904 C.3     1  UNL1        0.0215
     24 C          63.9499   83.2312   15.0804 C.3     1  UNL1        0.1197
     25 C          63.0958   80.0355   11.0731 C.3     1  UNL1        0.0307
     26 C          62.6345   80.6640   12.3547 C.ar    1  UNL1       -0.0260
     27 C          61.2851   80.3233   12.9140 C.ar    1  UNL1       -0.0046
     28 C          60.8239   80.9518   14.1956 C.ar    1  UNL1       -0.0006
     29 C          61.7122   81.9211   14.9177 C.ar    1  UNL1       -0.0029
     30 C          63.0616   82.2619   14.3583 C.ar    1  UNL1       -0.0066
     31 C          63.5228   81.6333   13.0768 C.ar    1  UNL1       -0.0281
     32 C          64.8723   81.9741   12.5174 C.3     1  UNL1        0.0304
@<TRIPOS>BOND
     1    25    26    1
     2    26    27   ar
     3    27    28   ar
     4    28    29   ar
     5    29    30   ar
     6    30    24    1
     7    24    18    1
     8    18    19   am
     9    19    20    2
    10     1    19    1
    11     1     2    1
    12     2     3    1
    13     3     4    1
    14     4     5    1
    15     6     5    1
    16     6     7    1
    17     7     8    1
    18     8     9    1
    19     9    10   ar
    20    10    11   ar
    21    11    12    1
    22    11    13   ar
    23    13    14    1
    24    13    15   ar
    25    15    16   ar
    26    18    21    1
    27    21    22    1
    28    22    23    1
    29    30    31   ar
    30    31    32    1
    31    31    26   ar
    32     6     1    1
    33    16     9   ar
    34    23    21    1
    35    16     6    1
    36     3    17    1
@<TRIPOS>MOLECULE
*****
 32 36 0 0 0
SMALL
GASTEIGER

@<TRIPOS>ATOM
      1 C          63.6205   90.6420   14.2357 C.3     1  UNL1        0.1211
      2 C          63.6405   91.5808   15.4054 C.3     1  UNL1        0.0804
      3 N          63.6332   91.0374   16.8034 N.3     1  UNL1       -0.2969
      4 C          63.6060   89.5551   17.0318 C.3     1  UNL1        0.0714
      5 C          63.5860   88.6163   15.8621 C.3     1  UNL1        0.0490
      6 C          63.5932   89.1597   14.4641 C.3     1  UNL1        0.1224
      7 O          63.5976   89.5541   13.0168 O.3     1  UNL1       -0.3492
      8 C          63.5724   88.2998   12.1945 C.3     1  UNL1        0.1687
      9 C          63.5525   87.1302   13.1335 C.ar    1  UNL1        0.0079
     10 C          63.5243   85.6500   12.8926 C.ar    1  UNL1        0.0299
     11 C          63.5089   84.7012   14.0543 C.ar    1  UNL1        0.1671
     12 F          63.4807   83.2210   13.8134 F       1  UNL1       -0.2018
     13 C          63.5218   85.2327   15.4569 C.ar    1  UNL1        0.1671
     14 F          63.5064   84.2839   16.6186 F       1  UNL1       -0.2018
     15 C          63.5500   86.7129   15.6979 C.ar    1  UNL1        0.0297
     16 C          63.5654   87.6617   14.5362 C.ar    1  UNL1        0.0033
     17 H          62.8084   91.4215   17.2644 H       1  UNL1        0.1233
     18 N          64.8003   91.9833   12.3491 N.am    1  UNL1       -0.2770
     19 C          63.6278   91.1854   12.8376 C.2     1  UNL1        0.2294
     20 O          62.4626   90.9310   11.9280 O.2     1  UNL1       -0.2747
     21 C          65.9656   92.2377   13.2589 C.3     1  UNL1        0.0758
     22 C          66.7927   93.1850   14.0765 C.3     1  UNL1        0.0215
     23 C          67.1567   91.7311   14.0168 C.3     1  UNL1        0.0215
     24 C          64.8077   92.5267   10.9511 C.3     1  UNL1        0.1197
     25 C          67.7342   96.3206    8.9407 C.3     1  UNL1        0.0307
     26 C          67.5578   94.8817    9.3260 C.ar    1  UNL1       -0.0260
     27 C          68.6681   93.9009    9.0914 C.ar    1  UNL1       -0.0046
     28 C          68.4917   92.4619    9.4767 C.ar    1  UNL1       -0.0006
     29 C          67.2049   92.0039   10.0966 C.ar    1  UNL1       -0.0029
     30 C          66.0945   92.9848   10.3312 C.ar    1  UNL1       -0.0066
     31 C          66.2709   94.4236    9.9459 C.ar    1  UNL1       -0.0281
     32 C          65.1605   95.4045   10.1805 C.3     1  UNL1        0.0304
@<TRIPOS>BOND
     1    25    26    1
     2    26    27   ar
     3    27    28   ar
     4    28    29   ar
     5    29    30   ar
     6    30    24    1
     7    24    18    1
     8    18    19   am
     9    19    20    2
    10     1    19    1
    11     1     2    1
    12     2     3    1
    13     3     4    1
    14     4     5    1
    15     6     5    1
    16     6     7    1
    17     7     8    1
    18     8     9    1
    19     9    10   ar
    20    10    11   ar
    21    11    12    1
    22    11    13   ar
    23    13    14    1
    24    13    15   ar
    25    15    16   ar
    26    18    21    1
    27    21    22    1
    28    22    23    1
    29    30    31   ar
    30    31    32    1
    31    31    26   ar
    32     6     1    1
    33    16     9   ar
    34    23    21    1
    35    16     6    1
    36     3    17    1
@<TRIPOS>MOLECULE
*****
 32 36 0 0 0
SMALL
GASTEIGER

@<TRIPOS>ATOM
      1 C          61.8535   88.2349    9.9867 C.3     1  UNL1        0.1211
      2 C          60.9938   88.3408    8.7621 C.3     1  UNL1        0.0804
      3 N          60.3646   87.1104    8.1789 N.3     1  UNL1       -0.2969
      4 C          60.5952   85.7741    8.8201 C.3     1  UNL1        0.0714
      5 C          61.4549   85.6683   10.0447 C.3     1  UNL1        0.0490
      6 C          62.0841   86.8987   10.6280 C.3     1  UNL1        0.1224
      7 O          62.7757   88.0353   11.3207 O.3     1  UNL1       -0.3492
      8 C          63.5223   87.4767   12.4957 C.3     1  UNL1        0.1687
      9 C          63.2921   85.9948   12.5292 C.ar    1  UNL1        0.0079
     10 C          63.7770   84.9247   13.4616 C.ar    1  UNL1        0.0299
     11 C          63.3732   83.4971   13.2398 C.ar    1  UNL1        0.1671
     12 F          63.8581   82.4270   14.1722 F       1  UNL1       -0.2018
     13 C          62.4844   83.1399   12.0855 C.ar    1  UNL1        0.1671
     14 F          62.0805   81.7125   11.8637 F       1  UNL1       -0.2018
     15 C          61.9994   84.2101   11.1530 C.ar    1  UNL1        0.0297
     16 C          62.4033   85.6376   11.3749 C.ar    1  UNL1        0.0033
     17 H          60.6975   87.0370    7.2175 H       1  UNL1        0.1233
     18 N          61.7194   90.3049   11.5511 N.am    1  UNL1       -0.2770
     19 C          62.4828   89.4653   10.5700 C.2     1  UNL1        0.2294
     20 O          63.8752   89.8561   10.1723 O.2     1  UNL1       -0.2747
     21 C          60.3269   89.9140   11.9488 C.3     1  UNL1        0.0758
     22 C          58.8550   90.2015   11.9772 C.3     1  UNL1        0.0215
     23 C          59.3869   88.9496   12.6093 C.3     1  UNL1        0.0215
     24 C          62.3486   91.5353   12.1344 C.3     1  UNL1        0.1197
     25 C          67.3946   92.4756   12.9428 C.3     1  UNL1        0.0307
     26 C          66.0934   91.8863   13.4006 C.ar    1  UNL1       -0.0260
     27 C          66.0139   91.1780   14.7204 C.ar    1  UNL1       -0.0046
     28 C          64.7127   90.5887   15.1783 C.ar    1  UNL1       -0.0006
     29 C          63.4909   90.7078   14.3163 C.ar    1  UNL1       -0.0029
     30 C          63.5704   91.4162   12.9964 C.ar    1  UNL1       -0.0066
     31 C          64.8716   92.0054   12.5386 C.ar    1  UNL1       -0.0281
     32 C          64.9510   92.7138   11.2187 C.3     1  UNL1        0.0304
@<TRIPOS>BOND
     1    25    26    1
     2    26    27   ar
     3    27    28   ar
     4    28    29   ar
     5    29    30   ar
     6    30    24    1
     7    24    18    1
     8    18    19   am
     9    19    20    2
    10     1    19    1
    11     1     2    1
    12     2     3    1
    13     3     4    1
    14     4     5    1
    15     6     5    1
    16     6     7    1
    17     7     8    1
    18     8     9    1
    19     9    10   ar
    20    10    11   ar
    21    11    12    1
    22    11    13   ar
    23    13    14    1
    24    13    15   ar
    25    15    16   ar
    26    18    21    1
    27    21    22    1
    28    22    23    1
    29    30    31   ar
    30    31    32    1
    31    31    26   ar
    32     6     1    1
    33    16     9   ar
    34    23    21    1
    35    16     6    1
    36     3    17    1
@<TRIPOS>MOLECULE
*****
 32 36 0 0 0
SMALL
GASTEIGER

@<TRIPOS>ATOM
      1 C          62.2089   89.8115   12.8043 C.3     1  UNL1        0.1211
      2 C          61.7972   89.2852   14.1472 C.3     1  UNL1        0.0804
      3 N          62.5307   89.7213   15.3807 N.3     1  UNL1       -0.2969
      4 C          63.6760   90.6838   15.2713 C.3     1  UNL1        0.0714
      5 C          64.0878   91.2101   13.9284 C.3     1  UNL1        0.0490
      6 C          63.3542   90.7739   12.6949 C.3     1  UNL1        0.1224
      7 O          62.7186   90.4300   11.3804 O.3     1  UNL1       -0.3492
      8 C          63.4454   91.1800   10.3037 C.3     1  UNL1        0.1687
      9 C          64.5303   91.9876   10.9528 C.ar    1  UNL1        0.0079
     10 C          65.5620   92.9189   10.3891 C.ar    1  UNL1        0.0299
     11 C          66.5376   93.5994   11.3032 C.ar    1  UNL1        0.1671
     12 F          67.5693   94.5307   10.7395 F       1  UNL1       -0.2018
     13 C          66.4811   93.3483   12.7809 C.ar    1  UNL1        0.1671
     14 F          67.4566   94.0287   13.6950 F       1  UNL1       -0.2018
     15 C          65.4493   92.4169   13.3447 C.ar    1  UNL1        0.0297
     16 C          64.4739   91.7365   12.4306 C.ar    1  UNL1        0.0033
     17 H          62.8969   88.8766   15.8197 H       1  UNL1        0.1233
     18 N          61.5741   87.9536   11.1027 N.am    1  UNL1       -0.2770
     19 C          61.4753   89.3753   11.5707 C.2     1  UNL1        0.2294
     20 O          60.6431   90.3608   10.8052 O.2     1  UNL1       -0.2747
     21 C          62.4064   86.9681   11.8683 C.3     1  UNL1        0.0758
     22 C          62.6944   85.5552   12.2817 C.3     1  UNL1        0.0215
     23 C          63.5599   86.6740   12.7808 C.3     1  UNL1        0.0215
     24 C          60.8406   87.5175    9.8691 C.3     1  UNL1        0.1197
     25 C          60.5186   84.4090    5.7177 C.3     1  UNL1        0.0307
     26 C          61.3179   84.9918    6.8454 C.ar    1  UNL1       -0.0260
     27 C          62.7554   84.6030    7.0250 C.ar    1  UNL1       -0.0046
     28 C          63.5548   85.1857    8.1527 C.ar    1  UNL1       -0.0006
     29 C          62.9165   86.1572    9.1007 C.ar    1  UNL1       -0.0029
     30 C          61.4788   86.5460    8.9211 C.ar    1  UNL1       -0.0066
     31 C          60.6796   85.9632    7.7934 C.ar    1  UNL1       -0.0281
     32 C          59.2420   86.3520    7.6138 C.3     1  UNL1        0.0304
@<TRIPOS>BOND
     1    25    26    1
     2    26    27   ar
     3    27    28   ar
     4    28    29   ar
     5    29    30   ar
     6    30    24    1
     7    24    18    1
     8    18    19   am
     9    19    20    2
    10     1    19    1
    11     1     2    1
    12     2     3    1
    13     3     4    1
    14     4     5    1
    15     6     5    1
    16     6     7    1
    17     7     8    1
    18     8     9    1
    19     9    10   ar
    20    10    11   ar
    21    11    12    1
    22    11    13   ar
    23    13    14    1
    24    13    15   ar
    25    15    16   ar
    26    18    21    1
    27    21    22    1
    28    22    23    1
    29    30    31   ar
    30    31    32    1
    31    31    26   ar
    32     6     1    1
    33    16     9   ar
    34    23    21    1
    35    16     6    1
    36     3    17    1
