@<TRIPOS>MOLECULE
*****
 30 33 0 0 0
SMALL
GASTEIGER

@<TRIPOS>ATOM
      1 C          63.0201   90.2795   11.4603 C.2     1  UNL1        0.2651
      2 O          62.3649   89.7013   12.6794 O.2     1  UNL1       -0.2684
      3 N          62.6766   89.7472   10.1005 N.am    1  UNL1       -0.2996
      4 H          63.1066   90.1267    9.3003 H       1  UNL1        0.1498
      5 C          65.4646   93.2719   11.0929 C.ar    1  UNL1        0.1239
      6 N          64.4588   92.3228   10.5117 N.ar    1  UNL1       -0.2260
      7 C          64.0187   91.3899   11.6007 C.ar    1  UNL1        0.1517
      8 C          64.7524   91.7624   12.8549 C.ar    1  UNL1        0.0872
      9 C          64.7222   91.1927   14.2421 C.ar    1  UNL1        0.0193
     10 C          65.5857   91.7861   15.3155 C.ar    1  UNL1        0.0031
     11 C          66.4794   92.9493   15.0016 C.ar    1  UNL1        0.0191
     12 C          66.5096   93.5189   13.6144 C.ar    1  UNL1        0.0811
     13 N          65.6461   92.9255   12.5410 N.ar    1  UNL1       -0.2921
     14 C          67.2937   94.0513    9.4203 C.3     1  UNL1        0.0079
     15 C          66.1659   94.3738   10.3553 C.3     1  UNL1        0.0573
     16 C          65.7395   95.7982   10.5527 C.3     1  UNL1        0.0079
     17 C          61.6780   88.6368    9.9600 C.3     1  UNL1        0.0898
     18 C          62.1243   87.2088   10.0676 C.3     1  UNL1        0.0224
     19 C          62.6734   86.5018    8.8639 C.3     1  UNL1        0.0191
     20 C          63.1197   85.0738    8.9716 C.3     1  UNL1        0.0721
     21 N          63.0170   84.3527   10.2829 N.3     1  UNL1       -0.2727
     22 C          62.4680   85.0596   11.4865 C.3     1  UNL1        0.0721
     23 C          62.0216   86.4877   11.3789 C.3     1  UNL1        0.0191
     24 C          63.4633   82.9247   10.3904 C.3     1  UNL1        0.0722
     25 C          63.3733   82.2077   11.7049 C.3     1  UNL1        0.0210
     26 C          62.5984   80.9276   11.8094 C.3     1  UNL1        0.0335
     27 C          62.5084   80.2106   13.1238 C.3     1  UNL1        0.1422
     28 O          63.1932   80.7737   14.3338 O.3     1  UNL1       -0.3538
     29 C          63.9681   82.0538   14.2292 C.3     1  UNL1        0.1422
     30 C          64.0581   82.7708   12.9148 C.3     1  UNL1        0.0335
@<TRIPOS>BOND
     1    14    15    1
     2    15    16    1
     3    15     5    1
     4     5     6   ar
     5     6     7   ar
     6     7     1    1
     7     1     2    2
     8     1     3   am
     9     3    17    1
    10    17    18    1
    11    18    19    1
    12    19    20    1
    13    20    21    1
    14    21    24    1
    15    24    25    1
    16    25    26    1
    17    26    27    1
    18    27    28    1
    19    28    29    1
    20    29    30    1
    21    21    22    1
    22    22    23    1
    23     7     8   ar
    24     8     9   ar
    25     9    10   ar
    26    10    11   ar
    27    11    12   ar
    28    12    13   ar
    29    13     5   ar
    30    23    18    1
    31    13     8   ar
    32    30    25    1
    33     3     4    1
@<TRIPOS>MOLECULE
*****
 30 33 0 0 0
SMALL
GASTEIGER

@<TRIPOS>ATOM
      1 C          62.4443   86.6267   11.0928 C.2     1  UNL1        0.2651
      2 O          62.1683   86.7500    9.6237 O.2     1  UNL1       -0.2684
      3 N          62.4321   87.8483   11.9633 N.am    1  UNL1       -0.2996
      4 H          62.6133   87.7675   12.9276 H       1  UNL1        0.1498
      5 C          62.9093   82.8806   11.9958 C.ar    1  UNL1        0.1239
      6 N          62.4701   83.9543   11.0449 N.ar    1  UNL1       -0.2260
      7 C          62.7326   85.2820   11.6916 C.ar    1  UNL1        0.1517
      8 C          63.3342   85.0289   13.0422 C.ar    1  UNL1        0.0872
      9 C          63.7966   85.9581   14.1251 C.ar    1  UNL1        0.0193
     10 C          64.3682   85.4032   15.3960 C.ar    1  UNL1        0.0031
     11 C          64.4773   83.9190   15.5840 C.ar    1  UNL1        0.0191
     12 C          64.0149   82.9898   14.5011 C.ar    1  UNL1        0.0811
     13 N          63.4434   83.5447   13.2302 N.ar    1  UNL1       -0.2921
     14 C          62.4277   80.4814   12.8689 C.3     1  UNL1        0.0079
     15 C          62.8287   81.4023   11.7547 C.3     1  UNL1        0.0573
     16 C          63.1491   80.8448   10.3996 C.3     1  UNL1        0.0079
     17 C          62.1438   89.1931   11.3646 C.3     1  UNL1        0.0898
     18 C          63.1250   90.3150   11.5331 C.3     1  UNL1        0.0224
     19 C          63.4102   91.2405   10.3876 C.3     1  UNL1        0.0191
     20 C          64.3914   92.3624   10.5562 C.3     1  UNL1        0.0721
     21 N          65.0876   92.5589   11.8703 N.3     1  UNL1       -0.2727
     22 C          64.8024   91.6334   13.0158 C.3     1  UNL1        0.0721
     23 C          63.8211   90.5114   12.8472 C.3     1  UNL1        0.0191
     24 C          66.0688   93.6808   12.0389 C.3     1  UNL1        0.0722
     25 C          66.3943   94.5733   10.8781 C.3     1  UNL1        0.0210
     26 C          65.8305   95.9620   10.8185 C.3     1  UNL1        0.0335
     27 C          66.1559   96.8545    9.6578 C.3     1  UNL1        0.1422
     28 O          67.0453   96.3583    8.5565 O.3     1  UNL1       -0.3538
     29 C          67.6092   94.9696    8.6160 C.3     1  UNL1        0.1422
     30 C          67.2837   94.0770    9.7768 C.3     1  UNL1        0.0335
@<TRIPOS>BOND
     1    14    15    1
     2    15    16    1
     3    15     5    1
     4     5     6   ar
     5     6     7   ar
     6     7     1    1
     7     1     2    2
     8     1     3   am
     9     3    17    1
    10    17    18    1
    11    18    19    1
    12    19    20    1
    13    20    21    1
    14    21    24    1
    15    24    25    1
    16    25    26    1
    17    26    27    1
    18    27    28    1
    19    28    29    1
    20    29    30    1
    21    21    22    1
    22    22    23    1
    23     7     8   ar
    24     8     9   ar
    25     9    10   ar
    26    10    11   ar
    27    11    12   ar
    28    12    13   ar
    29    13     5   ar
    30    23    18    1
    31    13     8   ar
    32    30    25    1
    33     3     4    1
@<TRIPOS>MOLECULE
*****
 30 33 0 0 0
SMALL
GASTEIGER

@<TRIPOS>ATOM
      1 C          62.4022   86.0839   10.8581 C.2     1  UNL1        0.2651
      2 O          62.6870   86.2867    9.3995 O.2     1  UNL1       -0.2684
      3 N          61.8496   87.2119   11.6782 N.am    1  UNL1       -0.2996
      4 H          61.6626   87.0789   12.6355 H       1  UNL1        0.1498
      5 C          62.8321   82.3596   11.8629 C.ar    1  UNL1        0.1239
      6 N          62.4232   83.4111   10.8743 N.ar    1  UNL1       -0.2260
      7 C          62.6698   84.7533   11.4967 C.ar    1  UNL1        0.1517
      8 C          63.2311   84.5315   12.8700 C.ar    1  UNL1        0.0872
      9 C          63.6639   85.4854   13.9435 C.ar    1  UNL1        0.0193
     10 C          64.1969   84.9600   15.2434 C.ar    1  UNL1        0.0031
     11 C          64.2971   83.4805   15.4697 C.ar    1  UNL1        0.0191
     12 C          63.8644   82.5266   14.3961 C.ar    1  UNL1        0.0811
     13 N          63.3314   83.0520   13.0962 N.ar    1  UNL1       -0.2921
     14 C          63.0130   80.2951   10.2959 C.3     1  UNL1        0.0079
     15 C          62.7551   80.8761   11.6546 C.3     1  UNL1        0.0573
     16 C          62.4203   79.9736   12.8050 C.3     1  UNL1        0.0079
     17 C          61.5820   88.5425   11.0395 C.3     1  UNL1        0.0898
     18 C          62.5439   89.6763   11.2372 C.3     1  UNL1        0.0224
     19 C          62.8030   90.6435   10.1204 C.3     1  UNL1        0.0191
     20 C          63.7650   91.7773   10.3182 C.3     1  UNL1        0.0721
     21 N          64.4679   91.9439   11.6328 N.3     1  UNL1       -0.2727
     22 C          64.2088   90.9767   12.7497 C.3     1  UNL1        0.0721
     23 C          63.2468   89.8428   12.5518 C.3     1  UNL1        0.0191
     24 C          65.4299   93.0777   11.8305 C.3     1  UNL1        0.0722
     25 C          66.5581   92.9420   12.8097 C.3     1  UNL1        0.0210
     26 C          67.7015   92.0175   12.5132 C.3     1  UNL1        0.0335
     27 C          68.8296   91.8818   13.4923 C.3     1  UNL1        0.1422
     28 O          68.8145   92.6707   14.7680 O.3     1  UNL1       -0.3538
     29 C          67.6711   93.5953   15.0646 C.3     1  UNL1        0.1422
     30 C          66.5429   93.7309   14.0854 C.3     1  UNL1        0.0335
@<TRIPOS>BOND
     1    14    15    1
     2    15    16    1
     3    15     5    1
     4     5     6   ar
     5     6     7   ar
     6     7     1    1
     7     1     2    2
     8     1     3   am
     9     3    17    1
    10    17    18    1
    11    18    19    1
    12    19    20    1
    13    20    21    1
    14    21    24    1
    15    24    25    1
    16    25    26    1
    17    26    27    1
    18    27    28    1
    19    28    29    1
    20    29    30    1
    21    21    22    1
    22    22    23    1
    23     7     8   ar
    24     8     9   ar
    25     9    10   ar
    26    10    11   ar
    27    11    12   ar
    28    12    13   ar
    29    13     5   ar
    30    23    18    1
    31    13     8   ar
    32    30    25    1
    33     3     4    1
@<TRIPOS>MOLECULE
*****
 30 33 0 0 0
SMALL
GASTEIGER

@<TRIPOS>ATOM
      1 C          63.0803   85.3660   14.8998 C.2     1  UNL1        0.2651
      2 O          62.5571   85.6296   16.2806 O.2     1  UNL1       -0.2684
      3 N          63.8865   86.4135   14.1906 N.am    1  UNL1       -0.2996
      4 H          64.2299   86.2405   13.2843 H       1  UNL1        0.1498
      5 C          61.9662   81.8168   13.7921 C.ar    1  UNL1        0.1239
      6 N          61.9906   82.9272   14.8003 N.ar    1  UNL1       -0.2260
      7 C          62.7974   84.0549   14.2282 C.ar    1  UNL1        0.1517
      8 C          63.2717   83.6415   12.8665 C.ar    1  UNL1        0.0872
      9 C          64.1050   84.3458   11.8372 C.ar    1  UNL1        0.0193
     10 C          64.4245   83.6669   10.5385 C.ar    1  UNL1        0.0031
     11 C          63.9108   82.2836   10.2690 C.ar    1  UNL1        0.0191
     12 C          63.0776   81.5793   11.2982 C.ar    1  UNL1        0.0811
     13 N          62.7580   82.2582   12.5970 N.ar    1  UNL1       -0.2921
     14 C          62.0484   79.2201   13.8181 C.3     1  UNL1        0.0079
     15 C          61.2720   80.4966   13.9512 C.3     1  UNL1        0.0573
     16 C          59.8014   80.4529   14.2432 C.3     1  UNL1        0.0079
     17 C          64.1694   87.7245   14.8623 C.3     1  UNL1        0.0898
     18 C          64.2717   88.9787   14.0458 C.3     1  UNL1        0.0224
     19 C          65.1296   90.1143   14.5197 C.3     1  UNL1        0.0191
     20 C          65.2318   91.3684   13.7032 C.3     1  UNL1        0.0721
     21 N          64.4763   91.4871   12.4128 N.3     1  UNL1       -0.2727
     22 C          63.6184   90.3515   11.9389 C.3     1  UNL1        0.0721
     23 C          63.5161   89.0973   12.7555 C.3     1  UNL1        0.0191
     24 C          64.5786   92.7412   11.5964 C.3     1  UNL1        0.0722
     25 C          65.8660   93.0849   10.9077 C.3     1  UNL1        0.0210
     26 C          66.9343   92.0435   10.7514 C.3     1  UNL1        0.0335
     27 C          68.2217   92.3872   10.0627 C.3     1  UNL1        0.1422
     28 O          68.4409   93.7723    9.5302 O.3     1  UNL1       -0.3538
     29 C          67.3726   94.8137    9.6865 C.3     1  UNL1        0.1422
     30 C          66.0852   94.4700   10.3752 C.3     1  UNL1        0.0335
@<TRIPOS>BOND
     1    14    15    1
     2    15    16    1
     3    15     5    1
     4     5     6   ar
     5     6     7   ar
     6     7     1    1
     7     1     2    2
     8     1     3   am
     9     3    17    1
    10    17    18    1
    11    18    19    1
    12    19    20    1
    13    20    21    1
    14    21    24    1
    15    24    25    1
    16    25    26    1
    17    26    27    1
    18    27    28    1
    19    28    29    1
    20    29    30    1
    21    21    22    1
    22    22    23    1
    23     7     8   ar
    24     8     9   ar
    25     9    10   ar
    26    10    11   ar
    27    11    12   ar
    28    12    13   ar
    29    13     5   ar
    30    23    18    1
    31    13     8   ar
    32    30    25    1
    33     3     4    1
@<TRIPOS>MOLECULE
*****
 30 33 0 0 0
SMALL
GASTEIGER

@<TRIPOS>ATOM
      1 C          63.8940   87.0966   13.9739 C.2     1  UNL1        0.2651
      2 O          64.3410   86.7113   15.3529 O.2     1  UNL1       -0.2684
      3 N          63.9149   88.5365   13.5537 N.am    1  UNL1       -0.2996
      4 H          63.6215   88.7894   12.6486 H       1  UNL1        0.1498
      5 C          62.9657   83.8868   11.9990 C.ar    1  UNL1        0.1239
      6 N          63.5708   84.5601   13.1950 N.ar    1  UNL1       -0.2260
      7 C          63.4263   86.0422   13.0150 C.ar    1  UNL1        0.1517
      8 C          62.7318   86.2849   11.7078 C.ar    1  UNL1        0.0872
      9 C          62.3219   87.5467   11.0081 C.ar    1  UNL1        0.0193
     10 C          61.6274   87.4764    9.6804 C.ar    1  UNL1        0.0031
     11 C          61.3428   86.1443    9.0525 C.ar    1  UNL1        0.0191
     12 C          61.7526   84.8824    9.7522 C.ar    1  UNL1        0.0811
     13 N          62.4472   84.9527   11.0798 N.ar    1  UNL1       -0.2921
     14 C          62.1909   81.5242   12.7530 C.3     1  UNL1        0.0079
     15 C          62.8920   82.4072   11.7635 C.3     1  UNL1        0.0573
     16 C          63.5194   81.8105   10.5387 C.3     1  UNL1        0.0079
     17 C          64.3826   89.5909   14.5126 C.3     1  UNL1        0.0898
     18 C          64.9007   90.8995   13.9939 C.3     1  UNL1        0.0224
     19 C          65.7914   91.7471   14.8532 C.3     1  UNL1        0.0191
     20 C          66.3095   93.0558   14.3344 C.3     1  UNL1        0.0721
     21 N          65.9370   93.5168   12.9565 N.3     1  UNL1       -0.2727
     22 C          65.0463   92.6692   12.0973 C.3     1  UNL1        0.0721
     23 C          64.5282   91.3605   12.6160 C.3     1  UNL1        0.0191
     24 C          66.4551   94.8254   12.4379 C.3     1  UNL1        0.0722
     25 C          66.5124   95.0769   10.9602 C.3     1  UNL1        0.0210
     26 C          65.6969   96.1808   10.3550 C.3     1  UNL1        0.0335
     27 C          65.7541   96.4322    8.8774 C.3     1  UNL1        0.1422
     28 O          66.6271   95.5797    8.0049 O.3     1  UNL1       -0.3538
     29 C          67.4426   94.4758    8.6101 C.3     1  UNL1        0.1422
     30 C          67.3853   94.2243   10.0877 C.3     1  UNL1        0.0335
@<TRIPOS>BOND
     1    14    15    1
     2    15    16    1
     3    15     5    1
     4     5     6   ar
     5     6     7   ar
     6     7     1    1
     7     1     2    2
     8     1     3   am
     9     3    17    1
    10    17    18    1
    11    18    19    1
    12    19    20    1
    13    20    21    1
    14    21    24    1
    15    24    25    1
    16    25    26    1
    17    26    27    1
    18    27    28    1
    19    28    29    1
    20    29    30    1
    21    21    22    1
    22    22    23    1
    23     7     8   ar
    24     8     9   ar
    25     9    10   ar
    26    10    11   ar
    27    11    12   ar
    28    12    13   ar
    29    13     5   ar
    30    23    18    1
    31    13     8   ar
    32    30    25    1
    33     3     4    1
@<TRIPOS>MOLECULE
*****
 30 33 0 0 0
SMALL
GASTEIGER

@<TRIPOS>ATOM
      1 C          63.6285   84.7359   15.3423 C.2     1  UNL1        0.2651
      2 O          65.0937   85.0512   15.4023 O.2     1  UNL1       -0.2684
      3 N          62.6463   85.5905   16.0874 N.am    1  UNL1       -0.2996
      4 H          61.6846   85.3835   16.0481 H       1  UNL1        0.1498
      5 C          62.0110   81.5204   13.8898 C.ar    1  UNL1        0.1239
      6 N          62.2288   82.4814   15.0208 N.ar    1  UNL1       -0.2260
      7 C          63.1454   83.5660   14.5374 C.ar    1  UNL1        0.1517
      8 C          63.4940   83.2753   13.1077 C.ar    1  UNL1        0.0872
      9 C          64.3593   83.9984   12.1186 C.ar    1  UNL1        0.0193
     10 C          64.5235   83.4573   10.7293 C.ar    1  UNL1        0.0031
     11 C          63.8224   82.1931   10.3291 C.ar    1  UNL1        0.0191
     12 C          62.9571   81.4699   11.3182 C.ar    1  UNL1        0.0811
     13 N          62.7930   82.0110   12.7075 N.ar    1  UNL1       -0.2921
     14 C          59.6902   80.3969   14.2090 C.3     1  UNL1        0.0079
     15 C          61.1606   80.2856   13.9335 C.3     1  UNL1        0.0573
     16 C          61.7803   78.9395   13.7017 C.3     1  UNL1        0.0079
     17 C          63.1294   86.7604   16.8924 C.3     1  UNL1        0.0898
     18 C          63.4669   88.0525   16.2094 C.3     1  UNL1        0.0224
     19 C          63.1467   89.3583   16.8743 C.3     1  UNL1        0.0191
     20 C          63.4843   90.6504   16.1912 C.3     1  UNL1        0.0721
     21 N          64.1420   90.6367   14.8431 N.3     1  UNL1       -0.2727
     22 C          64.4621   89.3308   14.1782 C.3     1  UNL1        0.0721
     23 C          64.1245   88.0387   14.8613 C.3     1  UNL1        0.0191
     24 C          64.4794   91.9288   14.1601 C.3     1  UNL1        0.0722
     25 C          65.7113   92.0284   13.3101 C.3     1  UNL1        0.0210
     26 C          67.0587   91.7471   13.9062 C.3     1  UNL1        0.0335
     27 C          68.2905   91.8467   13.0562 C.3     1  UNL1        0.1422
     28 O          68.1750   92.2276   11.6099 O.3     1  UNL1       -0.3538
     29 C          66.8276   92.5090   11.0138 C.3     1  UNL1        0.1422
     30 C          65.5957   92.4093   11.8639 C.3     1  UNL1        0.0335
@<TRIPOS>BOND
     1    14    15    1
     2    15    16    1
     3    15     5    1
     4     5     6   ar
     5     6     7   ar
     6     7     1    1
     7     1     2    2
     8     1     3   am
     9     3    17    1
    10    17    18    1
    11    18    19    1
    12    19    20    1
    13    20    21    1
    14    21    24    1
    15    24    25    1
    16    25    26    1
    17    26    27    1
    18    27    28    1
    19    28    29    1
    20    29    30    1
    21    21    22    1
    22    22    23    1
    23     7     8   ar
    24     8     9   ar
    25     9    10   ar
    26    10    11   ar
    27    11    12   ar
    28    12    13   ar
    29    13     5   ar
    30    23    18    1
    31    13     8   ar
    32    30    25    1
    33     3     4    1
@<TRIPOS>MOLECULE
*****
 30 33 0 0 0
SMALL
GASTEIGER

@<TRIPOS>ATOM
      1 C          59.7520   87.9369    8.2632 C.2     1  UNL1        0.2651
      2 O          58.6430   87.0297    7.8196 O.2     1  UNL1       -0.2684
      3 N          59.9104   89.2901    7.6356 N.am    1  UNL1       -0.2996
      4 H          60.6383   89.8856    7.9268 H       1  UNL1        0.1498
      5 C          62.0404   86.0894   10.7961 C.ar    1  UNL1        0.1239
      6 N          61.0588   86.0712    9.6620 N.ar    1  UNL1       -0.2260
      7 C          60.7028   87.4910    9.3344 C.ar    1  UNL1        0.1517
      8 C          61.4643   88.3867   10.2659 C.ar    1  UNL1        0.0872
      9 C          61.5118   89.8792   10.4082 C.ar    1  UNL1        0.0193
     10 C          62.3860   90.5054   11.4539 C.ar    1  UNL1        0.0031
     11 C          63.2128   89.6391   12.3573 C.ar    1  UNL1        0.0191
     12 C          63.1653   88.1467   12.2150 C.ar    1  UNL1        0.0811
     13 N          62.2911   87.5205   11.1693 N.ar    1  UNL1       -0.2921
     14 C          63.3939   83.8797   10.6071 C.3     1  UNL1        0.0079
     15 C          62.6623   84.8876   11.4433 C.3     1  UNL1        0.0573
     16 C          62.5525   84.6935   12.9266 C.3     1  UNL1        0.0079
     17 C          58.9597   89.7360    6.5645 C.3     1  UNL1        0.0898
     18 C          59.4302   90.6618    5.4821 C.3     1  UNL1        0.0224
     19 C          58.4455   91.5326    4.7595 C.3     1  UNL1        0.0191
     20 C          58.9161   92.4583    3.6771 C.3     1  UNL1        0.0721
     21 N          60.3713   92.5134    3.3173 N.3     1  UNL1       -0.2727
     22 C          61.3560   91.6426    4.0400 C.3     1  UNL1        0.0721
     23 C          60.8854   90.7168    5.1224 C.3     1  UNL1        0.0191
     24 C          60.8418   93.4391    2.2350 C.3     1  UNL1        0.0722
     25 C          60.0374   93.5942    0.9784 C.3     1  UNL1        0.0210
     26 C          59.8842   92.4355    0.0382 C.3     1  UNL1        0.0335
     27 C          59.0799   92.5904   -1.2183 C.3     1  UNL1        0.1422
     28 O          58.4285   93.9042   -1.5346 O.3     1  UNL1       -0.3538
     29 C          58.5817   95.0629   -0.5943 C.3     1  UNL1        0.1422
     30 C          59.3861   94.9078    0.6622 C.3     1  UNL1        0.0335
@<TRIPOS>BOND
     1    14    15    1
     2    15    16    1
     3    15     5    1
     4     5     6   ar
     5     6     7   ar
     6     7     1    1
     7     1     2    2
     8     1     3   am
     9     3    17    1
    10    17    18    1
    11    18    19    1
    12    19    20    1
    13    20    21    1
    14    21    24    1
    15    24    25    1
    16    25    26    1
    17    26    27    1
    18    27    28    1
    19    28    29    1
    20    29    30    1
    21    21    22    1
    22    22    23    1
    23     7     8   ar
    24     8     9   ar
    25     9    10   ar
    26    10    11   ar
    27    11    12   ar
    28    12    13   ar
    29    13     5   ar
    30    23    18    1
    31    13     8   ar
    32    30    25    1
    33     3     4    1
@<TRIPOS>MOLECULE
*****
 30 33 0 0 0
SMALL
GASTEIGER

@<TRIPOS>ATOM
      1 C          63.6385   86.4615   14.2048 C.2     1  UNL1        0.2651
      2 O          63.5428   86.2668   15.6890 O.2     1  UNL1       -0.2684
      3 N          63.9201   87.8239   13.6438 N.am    1  UNL1       -0.2996
      4 H          63.9828   87.9518   12.6696 H       1  UNL1        0.1498
      5 C          63.4579   83.8968   11.2972 C.ar    1  UNL1        0.1239
      6 N          63.8150   85.2540   11.8266 N.ar    1  UNL1       -0.2260
      7 C          63.4525   85.2940   13.2816 C.ar    1  UNL1        0.1517
      8 C          62.8715   83.9614   13.6514 C.ar    1  UNL1        0.0872
      9 C          62.3398   83.4228   14.9464 C.ar    1  UNL1        0.0193
     10 C          61.8114   82.0206   15.0150 C.ar    1  UNL1        0.0031
     11 C          61.8148   81.1571   13.7885 C.ar    1  UNL1        0.0191
     12 C          62.3465   81.6957   12.4934 C.ar    1  UNL1        0.0811
     13 N          62.8748   83.0979   12.4249 N.ar    1  UNL1       -0.2921
     14 C          64.1772   82.0418    9.6263 C.3     1  UNL1        0.0079
     15 C          63.6502   83.4217    9.8874 C.3     1  UNL1        0.0573
     16 C          63.3156   84.3265    8.7388 C.3     1  UNL1        0.0079
     17 C          64.1060   88.9914   14.5670 C.3     1  UNL1        0.0898
     18 C          64.6214   90.2950   14.0331 C.3     1  UNL1        0.0224
     19 C          64.0728   90.8505   12.7523 C.3     1  UNL1        0.0191
     20 C          64.5883   92.1540   12.2185 C.3     1  UNL1        0.0721
     21 N          65.6525   92.9021   12.9654 N.3     1  UNL1       -0.2727
     22 C          66.2012   92.3467   14.2462 C.3     1  UNL1        0.0721
     23 C          65.6856   91.0430   14.7801 C.3     1  UNL1        0.0191
     24 C          66.1680   94.2057   12.4315 C.3     1  UNL1        0.0722
     25 C          66.7336   94.2768   11.0441 C.3     1  UNL1        0.0210
     26 C          67.3692   93.0648   10.4302 C.3     1  UNL1        0.0335
     27 C          67.9348   93.1359    9.0428 C.3     1  UNL1        0.1422
     28 O          67.8648   94.4192    8.2692 O.3     1  UNL1       -0.3538
     29 C          67.2291   95.6313    8.8831 C.3     1  UNL1        0.1422
     30 C          66.6635   95.5601   10.2706 C.3     1  UNL1        0.0335
@<TRIPOS>BOND
     1    14    15    1
     2    15    16    1
     3    15     5    1
     4     5     6   ar
     5     6     7   ar
     6     7     1    1
     7     1     2    2
     8     1     3   am
     9     3    17    1
    10    17    18    1
    11    18    19    1
    12    19    20    1
    13    20    21    1
    14    21    24    1
    15    24    25    1
    16    25    26    1
    17    26    27    1
    18    27    28    1
    19    28    29    1
    20    29    30    1
    21    21    22    1
    22    22    23    1
    23     7     8   ar
    24     8     9   ar
    25     9    10   ar
    26    10    11   ar
    27    11    12   ar
    28    12    13   ar
    29    13     5   ar
    30    23    18    1
    31    13     8   ar
    32    30    25    1
    33     3     4    1
@<TRIPOS>MOLECULE
*****
 30 33 0 0 0
SMALL
GASTEIGER

@<TRIPOS>ATOM
      1 C          63.5305   84.5731   15.4008 C.2     1  UNL1        0.2651
      2 O          64.9886   84.9209   15.4534 O.2     1  UNL1       -0.2684
      3 N          62.5384   85.3790   16.1859 N.am    1  UNL1       -0.2996
      4 H          61.5813   85.1507   16.1514 H       1  UNL1        0.1498
      5 C          61.9422   81.3885   13.8513 C.ar    1  UNL1        0.1239
      6 N          62.1351   82.3279   15.0047 N.ar    1  UNL1       -0.2260
      7 C          63.0644   83.4194   14.5631 C.ar    1  UNL1        0.1517
      8 C          63.4458   83.1547   13.1367 C.ar    1  UNL1        0.0872
      9 C          64.3350   83.8944   12.1817 C.ar    1  UNL1        0.0193
     10 C          64.5306   83.3789   10.7868 C.ar    1  UNL1        0.0031
     11 C          63.8371   82.1238   10.3468 C.ar    1  UNL1        0.0191
     12 C          62.9478   81.3841   11.3018 C.ar    1  UNL1        0.0811
     13 N          62.7522   81.8995   12.6968 N.ar    1  UNL1       -0.2921
     14 C          59.6314   80.2511   14.1933 C.3     1  UNL1        0.0079
     15 C          61.0890   80.1548   13.8521 C.3     1  UNL1        0.0573
     16 C          61.6932   78.8248   13.5117 C.3     1  UNL1        0.0079
     17 C          63.0045   86.5327   17.0236 C.3     1  UNL1        0.0898
     18 C          63.4137   87.8183   16.3681 C.3     1  UNL1        0.0224
     19 C          64.1682   87.7924   15.0719 C.3     1  UNL1        0.0191
     20 C          64.5774   89.0781   14.4165 C.3     1  UNL1        0.0721
     21 N          64.2321   90.3897   15.0572 N.3     1  UNL1       -0.2727
     22 C          63.4777   90.4156   16.3534 C.3     1  UNL1        0.0721
     23 C          63.0685   89.1299   17.0089 C.3     1  UNL1        0.0191
     24 C          64.6414   91.6753   14.4017 C.3     1  UNL1        0.0722
     25 C          64.5723   91.8116   12.9095 C.3     1  UNL1        0.0210
     26 C          65.6088   92.6147   12.1810 C.3     1  UNL1        0.0335
     27 C          65.5398   92.7511   10.6888 C.3     1  UNL1        0.1422
     28 O          64.4342   92.0842    9.9251 O.3     1  UNL1       -0.3538
     29 C          63.3978   91.2810   10.6537 C.3     1  UNL1        0.1422
     30 C          63.4668   91.1448   12.1459 C.3     1  UNL1        0.0335
@<TRIPOS>BOND
     1    14    15    1
     2    15    16    1
     3    15     5    1
     4     5     6   ar
     5     6     7   ar
     6     7     1    1
     7     1     2    2
     8     1     3   am
     9     3    17    1
    10    17    18    1
    11    18    19    1
    12    19    20    1
    13    20    21    1
    14    21    24    1
    15    24    25    1
    16    25    26    1
    17    26    27    1
    18    27    28    1
    19    28    29    1
    20    29    30    1
    21    21    22    1
    22    22    23    1
    23     7     8   ar
    24     8     9   ar
    25     9    10   ar
    26    10    11   ar
    27    11    12   ar
    28    12    13   ar
    29    13     5   ar
    30    23    18    1
    31    13     8   ar
    32    30    25    1
    33     3     4    1
