@<TRIPOS>MOLECULE
*****
 68 76 0 0 0
SMALL
GASTEIGER

@<TRIPOS>ATOM
      1 N          65.4654   89.9109   13.8348 N.3     1  UNL1       -0.1862
      2 C          65.8795   88.7875   14.7385 C.3     1  UNL1        0.1775
      3 C          65.1171   87.4957   14.7269 C.2     1  UNL1        0.2452
      4 O          65.5312   86.3723   15.6306 O.2     1  UNL1       -0.2732
      5 N          63.9407   87.3273   13.8117 N.am    1  UNL1       -0.2541
      6 C          63.1783   86.0355   13.8001 C.3     1  UNL1        0.1577
      7 C          62.0019   85.8671   12.8849 C.2     1  UNL1        0.2445
      8 O          61.2396   84.5754   12.8734 O.2     1  UNL1       -0.2731
      9 N          61.5878   86.9905   11.9813 N.am    1  UNL1       -0.2705
     10 C          62.3502   88.2823   11.9928 C.3     1  UNL1        0.1359
     11 C          63.5266   88.4507   12.9081 C.3     1  UNL1        0.1908
     12 N          64.2890   89.7424   12.9197 N.am    1  UNL1       -0.1863
     13 C          63.8749   90.8658   12.0160 C.2     1  UNL1        0.3191
     14 O          62.6985   90.6974   11.1008 O.2     1  UNL1       -0.2512
     15 N          64.6372   92.1576   12.0275 N.am    1  UNL1       -0.2836
     16 H          65.4094   92.2681   12.6282 H       1  UNL1        0.1513
     17 C          66.2278   91.2026   13.8464 C.3     1  UNL1        0.1188
     18 C          67.3395   92.5645   15.7593 C.2     1  UNL1       -0.0034
     19 C          67.3560   91.3990   14.8152 C.2     1  UNL1       -0.0071
     20 C          63.5924   84.9122   14.7038 C.3     1  UNL1        0.0556
     21 C          63.3446   83.4904   14.2948 C.ar    1  UNL1       -0.0198
     22 C          64.2364   82.8350   13.2824 C.ar    1  UNL1       -0.0011
     23 C          63.9887   81.4132   12.8735 C.ar    1  UNL1        0.0363
     24 C          62.8491   80.6469   13.4769 C.ar    1  UNL1        0.1337
     25 O          62.6014   79.2252   13.0680 O.3     1  UNL1       -0.5055
     26 C          61.9572   81.3024   14.4894 C.ar    1  UNL1        0.0363
     27 C          62.2050   82.7242   14.8983 C.ar    1  UNL1       -0.0011
     28 H          63.1585   78.8157   12.4355 H       1  UNL1        0.2922
     29 C          60.4114   86.8221   11.0661 C.3     1  UNL1        0.1217
     30 C          60.5642   87.0704    9.5946 C.ar    1  UNL1        0.0135
     31 C          61.0882   85.9853    8.7013 C.ar    1  UNL1       -0.0012
     32 C          61.2410   86.2336    7.2300 C.ar    1  UNL1       -0.0002
     33 C          60.8699   87.5670    6.6519 C.ar    1  UNL1        0.0015
     34 C          60.3459   88.6521    7.5452 C.ar    1  UNL1        0.0170
     35 C          59.9016   90.0569    7.2636 C.ar    1  UNL1        0.0186
     36 C          59.4742   90.6767    8.5609 C.ar    1  UNL1        0.0759
     37 N          59.6543   89.6551    9.6443 N.ar    1  UNL1       -0.3242
     38 C          59.3492   89.8504   11.0999 C.3     1  UNL1        0.1305
     39 C          60.1930   88.4039    9.0165 C.ar    1  UNL1        0.0575
     40 C          59.8872   90.7246    5.9204 C.ar    1  UNL1        0.0015
     41 C          61.1583   90.8568    5.1350 C.ar    1  UNL1        0.0002
     42 C          61.1439   91.5245    3.7919 C.ar    1  UNL1        0.0046
     43 C          59.8585   92.0598    3.2341 C.ar    1  UNL1        0.0546
     44 C          58.5874   91.9276    4.0195 C.ar    1  UNL1        0.0046
     45 C          58.6018   91.2599    5.3626 C.ar    1  UNL1        0.0002
     46 C          59.8442   92.7275    1.8910 C.2     1  UNL1        0.2590
     47 O          59.5945   94.2031    1.7896 O.2     1  UNL1       -0.2688
     48 N          60.0795   91.9196    0.6492 N.am    1  UNL1       -0.2429
     49 H          60.2434   90.9511    0.7157 H       1  UNL1        0.1696
     50 N          60.0652   92.5873   -0.6939 N.3     1  UNL1       -0.2022
     51 C          58.7835   92.6906   -1.4664 C.3     1  UNL1        0.1133
     52 C          58.7691   93.3583   -2.8095 C.3     1  UNL1        0.1113
     53 N          60.0363   93.9227   -3.3801 N.pl3   1  UNL1       -0.2903
     54 C          61.3179   93.8194   -2.6076 C.3     1  UNL1        0.1113
     55 C          61.3324   93.1517   -1.2645 C.3     1  UNL1        0.1133
     56 C          60.0219   94.5904   -4.7232 C.ar    1  UNL1        0.1318
     57 C          58.8156   94.4719   -5.6068 C.ar    1  UNL1        0.0343
     58 C          58.8012   95.1396   -6.9499 C.ar    1  UNL1        0.0045
     59 C          59.9931   95.9258   -7.4095 C.ar    1  UNL1        0.0208
     60 C          61.1994   96.0444   -6.5259 C.ar    1  UNL1        0.1003
     61 N          61.2138   95.3767   -5.1827 N.ar    1  UNL1       -0.2292
     62 C          64.2232   93.2809   11.1239 C.3     1  UNL1        0.1177
     63 C          65.2646   94.1115   10.4343 C.ar    1  UNL1       -0.0025
     64 C          66.5456   93.4796    9.9763 C.ar    1  UNL1       -0.0026
     65 C          67.5870   94.3102    9.2867 C.ar    1  UNL1       -0.0003
     66 C          67.3474   95.7727    9.0550 C.ar    1  UNL1       -0.0000
     67 C          66.0664   96.4047    9.5130 C.ar    1  UNL1       -0.0003
     68 C          65.0250   95.5741   10.2026 C.ar    1  UNL1       -0.0026
@<TRIPOS>BOND
     1    18    19    2
     2    19    17    1
     3    17     1    1
     4     1     2    1
     5     2     3    1
     6     3     4    2
     7     3     5   am
     8     5     6    1
     9     6    20    1
    10    20    21    1
    11    21    22   ar
    12    22    23   ar
    13    23    24   ar
    14    24    25    1
    15    24    26   ar
    16    26    27   ar
    17     6     7    1
    18     7     8    2
    19     7     9   am
    20     9    29    1
    21    29    30    1
    22    30    31   ar
    23    31    32   ar
    24    32    33   ar
    25    33    34   ar
    26    34    35   ar
    27    35    40    1
    28    40    41   ar
    29    41    42   ar
    30    42    43   ar
    31    43    46    1
    32    46    47    2
    33    46    48   am
    34    48    50    1
    35    50    51    1
    36    51    52    1
    37    52    53    1
    38    53    56    1
    39    56    57   ar
    40    57    58   ar
    41    58    59   ar
    42    59    60   ar
    43    60    61   ar
    44    53    54    1
    45    54    55    1
    46    43    44   ar
    47    44    45   ar
    48    35    36   ar
    49    36    37   ar
    50    37    38    1
    51    37    39   ar
    52     9    10    1
    53    11    10    1
    54    11    12    1
    55    12    13   am
    56    13    14    2
    57    13    15   am
    58    15    62    1
    59    62    63    1
    60    63    64   ar
    61    64    65   ar
    62    65    66   ar
    63    66    67   ar
    64    67    68   ar
    65    12     1    1
    66    68    63   ar
    67    11     5    1
    68    27    21   ar
    69    39    30   ar
    70    39    34   ar
    71    45    40   ar
    72    55    50    1
    73    61    56   ar
    74    25    28    1
    75    48    49    1
    76    15    16    1
