@<TRIPOS>MOLECULE
*****
 23 27 0 0 0
SMALL
GASTEIGER

@<TRIPOS>ATOM
      1 O          62.3456   84.4858   11.2861 O.2     1  UNL1       -0.2699
      2 C          62.9119   85.5524   12.1760 C.2     1  UNL1        0.2503
      3 C          62.7275   86.9629   11.7001 C.2     1  UNL1        0.0679
      4 C          61.9956   87.0534   10.3939 C.2     1  UNL1        0.0016
      5 C          61.7269   88.3935    9.7761 C.2     1  UNL1       -0.0198
      6 C          62.1903   89.6432   10.4644 C.3     1  UNL1        0.0705
      7 C          62.9222   89.5527   11.7705 C.2     1  UNL1        0.0708
      8 N          63.4955   90.6032   12.6747 N.am    1  UNL1       -0.1647
      9 C          64.1185   89.9123   13.8514 C.2     1  UNL1        0.3311
     10 O          64.8087   90.5816   15.0029 O.2     1  UNL1       -0.2501
     11 N          63.9302   88.4348   13.6745 N.am    1  UNL1       -0.2388
     12 C          63.1909   88.2125   12.3883 C.2     1  UNL1        0.0713
     13 C          64.3909   87.3626   14.6041 C.3     1  UNL1        0.1213
     14 C          64.2458   85.8729   14.5049 C.3     1  UNL1        0.1156
     15 N          63.5876   85.0672   13.4243 N.am    1  UNL1       -0.2745
     16 C          63.3453   82.4054   13.2771 C.3     1  UNL1        0.0917
     17 C          62.2922   82.0399   14.0497 C.3     1  UNL1        0.0921
     18 N          61.6619   81.7700   14.5058 N.3     1  UNL1       -0.2713
     19 C          62.4460   80.7278   13.7647 C.3     1  UNL1        0.0722
     20 C          63.6106   81.1322   12.9102 C.3     1  UNL1        0.0191
     21 C          63.9912   82.5786   12.7968 C.3     1  UNL1        0.0224
     22 C          63.2070   83.6208   13.5378 C.3     1  UNL1        0.0191
     23 C          62.0424   83.2164   14.3923 C.3     1  UNL1        0.0722
@<TRIPOS>BOND
     1     1     2    2
     2     2     3    1
     3     3     4    1
     4     4     5    2
     5     5     6    1
     6     6     7    1
     7     7     8    2
     8     8     9    1
     9     9    10    2
    10     9    11   am
    11    11    12    1
    12    11    13    1
    13    13    14    1
    14    14    15    1
    15    16    15    1
    16    16    17    1
    17    17    18    1
    18    18    19    1
    19    19    20    1
    20    20    21    1
    21    21    22    1
    22    22    23    1
    23    15     2   am
    24    21    16    1
    25    12     3    2
    26    23    18    1
    27    12     7    1
@<TRIPOS>MOLECULE
*****
 23 27 0 0 0
SMALL
GASTEIGER

@<TRIPOS>ATOM
      1 O          63.3919   90.1446   12.4734 O.2     1  UNL1       -0.2699
      2 C          63.4985   88.6924   12.8335 C.2     1  UNL1        0.2503
      3 C          62.8724   87.7338   11.8645 C.2     1  UNL1        0.0679
      4 C          62.2402   88.4146   10.6870 C.2     1  UNL1        0.0016
      5 C          61.5684   87.6002    9.6214 C.2     1  UNL1       -0.0198
      6 C          61.5288   86.1049    9.7335 C.3     1  UNL1        0.0705
      7 C          62.1610   85.4241   10.9110 C.2     1  UNL1        0.0708
      8 N          62.2789   83.9775   11.2899 N.am    1  UNL1       -0.1647
      9 C          63.0235   83.8979   12.5896 C.2     1  UNL1        0.3311
     10 O          63.3657   82.6414   13.3342 O.2     1  UNL1       -0.2501
     11 N          63.3659   85.2953   13.0140 N.am    1  UNL1       -0.2388
     12 C          62.8328   86.2385   11.9765 C.2     1  UNL1        0.0713
     13 C          64.1054   85.6935   14.2471 C.3     1  UNL1        0.1213
     14 C          64.4873   87.0561   14.7443 C.3     1  UNL1        0.1156
     15 N          64.2172   88.3909   14.1152 N.am    1  UNL1       -0.2745
     16 C          64.9137   90.8083   15.0298 C.3     1  UNL1        0.0917
     17 C          64.0419   91.1491   16.0114 C.3     1  UNL1        0.0921
     18 N          63.5379   91.3995   16.6125 N.3     1  UNL1       -0.2713
     19 C          64.6444   92.3384   16.2328 C.3     1  UNL1        0.0722
     20 C          65.6085   91.9614   15.1473 C.3     1  UNL1        0.0191
     21 C          65.4661   90.6456   14.4414 C.3     1  UNL1        0.0224
     22 C          64.3596   89.7067   14.8211 C.3     1  UNL1        0.0191
     23 C          63.3955   90.0837   15.9066 C.3     1  UNL1        0.0722
@<TRIPOS>BOND
     1     1     2    2
     2     2     3    1
     3     3     4    1
     4     4     5    2
     5     5     6    1
     6     6     7    1
     7     7     8    2
     8     8     9    1
     9     9    10    2
    10     9    11   am
    11    11    12    1
    12    11    13    1
    13    13    14    1
    14    14    15    1
    15    16    15    1
    16    16    17    1
    17    17    18    1
    18    18    19    1
    19    19    20    1
    20    20    21    1
    21    21    22    1
    22    22    23    1
    23    15     2   am
    24    21    16    1
    25    12     3    2
    26    23    18    1
    27    12     7    1
@<TRIPOS>MOLECULE
*****
 23 27 0 0 0
SMALL
GASTEIGER

@<TRIPOS>ATOM
      1 O          62.0303   85.3520   10.5541 O.2     1  UNL1       -0.2699
      2 C          62.6661   86.2294   11.5915 C.2     1  UNL1        0.2503
      3 C          62.5573   87.7059   11.3506 C.2     1  UNL1        0.0679
      4 C          61.8174   88.0447   10.0906 C.2     1  UNL1        0.0016
      5 C          61.6188   89.4793    9.7001 C.2     1  UNL1       -0.0198
      6 C          62.1602   90.5751   10.5697 C.3     1  UNL1        0.0705
      7 C          62.9001   90.2363   11.8297 C.2     1  UNL1        0.0708
      8 N          63.5423   91.0952   12.8784 N.am    1  UNL1       -0.1647
      9 C          64.1378   90.1915   13.9170 C.2     1  UNL1        0.3311
     10 O          64.8776   90.6286   15.1466 O.2     1  UNL1       -0.2501
     11 N          63.8636   88.7740   13.5102 N.am    1  UNL1       -0.2388
     12 C          63.0987   88.8017   12.2201 C.2     1  UNL1        0.0713
     13 C          64.2726   87.5429   14.2473 C.3     1  UNL1        0.1213
     14 C          64.0417   86.0987   13.9145 C.3     1  UNL1        0.1156
     15 N          63.3268   85.5140   12.7325 N.am    1  UNL1       -0.2745
     16 C          62.9315   82.9276   12.1671 C.3     1  UNL1        0.0917
     17 C          63.7956   82.5801   11.1812 C.3     1  UNL1        0.0921
     18 N          64.3011   82.3225   10.5843 N.3     1  UNL1       -0.2713
     19 C          63.3546   81.3032   11.1459 C.3     1  UNL1        0.0722
     20 C          62.3990   81.6875   12.2362 C.3     1  UNL1        0.0191
     21 C          62.3897   83.0911   12.7651 C.3     1  UNL1        0.0224
     22 C          63.3361   84.1104   12.2036 C.3     1  UNL1        0.0191
     23 C          64.2917   83.7261   11.1132 C.3     1  UNL1        0.0722
@<TRIPOS>BOND
     1     1     2    2
     2     2     3    1
     3     3     4    1
     4     4     5    2
     5     5     6    1
     6     6     7    1
     7     7     8    2
     8     8     9    1
     9     9    10    2
    10     9    11   am
    11    11    12    1
    12    11    13    1
    13    13    14    1
    14    14    15    1
    15    16    15    1
    16    16    17    1
    17    17    18    1
    18    18    19    1
    19    19    20    1
    20    20    21    1
    21    21    22    1
    22    22    23    1
    23    15     2   am
    24    21    16    1
    25    12     3    2
    26    23    18    1
    27    12     7    1
@<TRIPOS>MOLECULE
*****
 23 27 0 0 0
SMALL
GASTEIGER

@<TRIPOS>ATOM
      1 O          62.2304   84.9764   10.7966 O.2     1  UNL1       -0.2699
      2 C          62.5226   86.3995   11.1700 C.2     1  UNL1        0.2503
      3 C          63.1643   86.6020   12.5106 C.2     1  UNL1        0.0679
      4 C          63.4024   85.3189   13.2501 C.2     1  UNL1        0.0016
      5 C          64.0376   85.3431   14.6087 C.2     1  UNL1       -0.0198
      6 C          64.4348   86.6503   15.2278 C.3     1  UNL1        0.0705
      7 C          64.1967   87.9334   14.4883 C.2     1  UNL1        0.0708
      8 N          64.4804   89.3633   14.8420 N.am    1  UNL1       -0.1647
      9 C          64.0204   90.2228   13.7020 C.2     1  UNL1        0.3311
     10 O          64.1123   91.7185   13.6325 O.2     1  UNL1       -0.2501
     11 N          63.4525   89.3242   12.6437 N.am    1  UNL1       -0.2388
     12 C          63.5615   87.9093   13.1297 C.2     1  UNL1        0.0713
     13 C          62.8771   89.7472   11.3337 C.3     1  UNL1        0.1213
     14 C          62.2923   88.9218   10.2262 C.3     1  UNL1        0.1156
     15 N          62.1345   87.4318   10.1533 N.am    1  UNL1       -0.2745
     16 C          61.0849   85.9874    8.1589 C.3     1  UNL1        0.0917
     17 C          62.0908   85.2875    7.5776 C.3     1  UNL1        0.0921
     18 N          62.6675   84.8432    7.1928 N.3     1  UNL1       -0.2713
     19 C          61.2653   84.7099    6.6769 C.3     1  UNL1        0.0722
     20 C          60.1529   85.4840    7.3198 C.3     1  UNL1        0.0191
     21 C          60.4426   86.3913    8.4786 C.3     1  UNL1        0.0224
     22 C          61.8448   86.5246    8.9945 C.3     1  UNL1        0.0191
     23 C          62.9572   85.7505    8.3516 C.3     1  UNL1        0.0722
@<TRIPOS>BOND
     1     1     2    2
     2     2     3    1
     3     3     4    1
     4     4     5    2
     5     5     6    1
     6     6     7    1
     7     7     8    2
     8     8     9    1
     9     9    10    2
    10     9    11   am
    11    11    12    1
    12    11    13    1
    13    13    14    1
    14    14    15    1
    15    16    15    1
    16    16    17    1
    17    17    18    1
    18    18    19    1
    19    19    20    1
    20    20    21    1
    21    21    22    1
    22    22    23    1
    23    15     2   am
    24    21    16    1
    25    12     3    2
    26    23    18    1
    27    12     7    1
@<TRIPOS>MOLECULE
*****
 23 27 0 0 0
SMALL
GASTEIGER

@<TRIPOS>ATOM
      1 O          61.6293   88.9442   12.3972 O.2     1  UNL1       -0.2699
      2 C          62.6221   90.0075   12.0315 C.2     1  UNL1        0.2503
      3 C          63.4338   90.5581   13.1664 C.2     1  UNL1        0.0679
      4 C          63.0991   89.9331   14.4882 C.2     1  UNL1        0.0016
      5 C          63.8202   90.3704   15.7286 C.2     1  UNL1       -0.0198
      6 C          64.8760   91.4329   15.6472 C.3     1  UNL1        0.0705
      7 C          65.2107   92.0579   14.3254 C.2     1  UNL1        0.0708
      8 N          66.1970   93.1196   13.9382 N.am    1  UNL1       -0.1647
      9 C          66.0855   93.3384   12.4584 C.2     1  UNL1        0.3311
     10 O          66.8883   94.3127   11.6483 O.2     1  UNL1       -0.2501
     11 N          65.0303   92.4119   11.9311 N.am    1  UNL1       -0.2388
     12 C          64.4896   91.6205   13.0850 C.2     1  UNL1        0.0713
     13 C          64.5854   92.2873   10.5124 C.3     1  UNL1        0.1213
     14 C          63.5456   91.3943    9.9032 C.3     1  UNL1        0.1156
     15 N          62.6718   90.3796   10.5792 N.am    1  UNL1       -0.2745
     16 C          60.8229   88.7994    9.4612 C.3     1  UNL1        0.0917
     17 C          61.3650   87.5652    9.3121 C.3     1  UNL1        0.0921
     18 N          61.6504   86.8007    9.2015 N.3     1  UNL1       -0.2713
     19 C          60.2403   87.0588    8.7598 C.3     1  UNL1        0.0722
     20 C          59.6408   88.4239    8.9247 C.3     1  UNL1        0.0191
     21 C          60.4512   89.5308    9.5311 C.3     1  UNL1        0.0224
     22 C          61.8613   89.2727    9.9728 C.3     1  UNL1        0.0191
     23 C          62.4609   87.9077    9.8079 C.3     1  UNL1        0.0722
@<TRIPOS>BOND
     1     1     2    2
     2     2     3    1
     3     3     4    1
     4     4     5    2
     5     5     6    1
     6     6     7    1
     7     7     8    2
     8     8     9    1
     9     9    10    2
    10     9    11   am
    11    11    12    1
    12    11    13    1
    13    13    14    1
    14    14    15    1
    15    16    15    1
    16    16    17    1
    17    17    18    1
    18    18    19    1
    19    19    20    1
    20    20    21    1
    21    21    22    1
    22    22    23    1
    23    15     2   am
    24    21    16    1
    25    12     3    2
    26    23    18    1
    27    12     7    1
@<TRIPOS>MOLECULE
*****
 23 27 0 0 0
SMALL
GASTEIGER

@<TRIPOS>ATOM
      1 O          64.0197   85.5669   14.3163 O.2     1  UNL1       -0.2699
      2 C          63.3169   86.2428   13.1763 C.2     1  UNL1        0.2503
      3 C          63.4770   87.7324   13.1043 C.2     1  UNL1        0.0679
      4 C          64.3280   88.2879   14.2075 C.2     1  UNL1        0.0016
      5 C          64.5892   89.7631   14.2829 C.2     1  UNL1       -0.0198
      6 C          63.9994   90.6827   13.2551 C.3     1  UNL1        0.0705
      7 C          63.1484   90.1272   12.1519 C.2     1  UNL1        0.0708
      8 N          62.4379   90.7829   11.0050 N.am    1  UNL1       -0.1647
      9 C          61.7376   89.7130   10.2208 C.2     1  UNL1        0.3311
     10 O          60.9057   89.9233    8.9904 O.2     1  UNL1       -0.2501
     11 N          62.0153   88.3961   10.8830 N.am    1  UNL1       -0.2388
     12 C          62.8872   88.6521   12.0765 C.2     1  UNL1        0.0713
     13 C          61.5193   87.0589   10.4446 C.3     1  UNL1        0.1213
     14 C          61.7470   85.7026   11.0434 C.3     1  UNL1        0.1156
     15 N          62.5470   85.3393   12.2592 N.am    1  UNL1       -0.2745
     16 C          62.9340   82.9050   13.3031 C.3     1  UNL1        0.0917
     17 C          63.9659   82.3266   12.6395 C.3     1  UNL1        0.0921
     18 N          64.5865   81.9349   12.2660 N.3     1  UNL1       -0.2713
     19 C          63.8944   81.1921   13.3703 C.3     1  UNL1        0.0722
     20 C          62.7532   81.8317   14.1041 C.3     1  UNL1        0.0191
     21 C          62.3041   83.2141   13.7338 C.3     1  UNL1        0.0224
     22 C          62.9962   83.9569   12.6295 C.3     1  UNL1        0.0191
     23 C          64.1374   83.3173   11.8957 C.3     1  UNL1        0.0722
@<TRIPOS>BOND
     1     1     2    2
     2     2     3    1
     3     3     4    1
     4     4     5    2
     5     5     6    1
     6     6     7    1
     7     7     8    2
     8     8     9    1
     9     9    10    2
    10     9    11   am
    11    11    12    1
    12    11    13    1
    13    13    14    1
    14    14    15    1
    15    16    15    1
    16    16    17    1
    17    17    18    1
    18    18    19    1
    19    19    20    1
    20    20    21    1
    21    21    22    1
    22    22    23    1
    23    15     2   am
    24    21    16    1
    25    12     3    2
    26    23    18    1
    27    12     7    1
@<TRIPOS>MOLECULE
*****
 23 27 0 0 0
SMALL
GASTEIGER

@<TRIPOS>ATOM
      1 O          66.9384   93.9093   12.4193 O.2     1  UNL1       -0.2699
      2 C          65.7954   92.9710   12.1675 C.2     1  UNL1        0.2503
      3 C          65.2447   92.2765   13.3776 C.2     1  UNL1        0.0679
      4 C          65.9509   92.6535   14.6461 C.2     1  UNL1        0.0016
      5 C          65.5239   92.0484   15.9505 C.2     1  UNL1       -0.0198
      6 C          64.3907   91.0662   15.9864 C.3     1  UNL1        0.0705
      7 C          63.6845   90.6892   14.7179 C.2     1  UNL1        0.0708
      8 N          62.5426   89.7559   14.4441 N.am    1  UNL1       -0.1647
      9 C          62.2639   89.7843   12.9705 C.2     1  UNL1        0.3311
     10 O          61.2019   88.9995   12.2588 O.2     1  UNL1       -0.2501
     11 N          63.2335   90.7351   12.3335 N.am    1  UNL1       -0.2388
     12 C          64.1115   91.2944   13.4135 C.2     1  UNL1        0.0713
     13 C          63.3221   91.0753   10.8835 C.3     1  UNL1        0.1213
     14 C          64.2535   92.0077   10.1674 C.3     1  UNL1        0.1156
     15 N          65.3544   92.8514   10.7388 N.am    1  UNL1       -0.2745
     16 C          67.0014   94.5076    9.4311 C.3     1  UNL1        0.0917
     17 C          66.5165   95.7673    9.5635 C.3     1  UNL1        0.0921
     18 N          66.2612   96.5484    9.6162 N.3     1  UNL1       -0.2713
     19 C          67.5189   96.3070    8.8353 C.3     1  UNL1        0.0722
     20 C          68.0551   94.9138    8.6889 C.3     1  UNL1        0.0191
     21 C          67.3336   93.7620    9.3234 C.3     1  UNL1        0.0224
     22 C          66.0759   94.0033   10.1043 C.3     1  UNL1        0.0191
     23 C          65.5397   95.3965   10.2507 C.3     1  UNL1        0.0722
@<TRIPOS>BOND
     1     1     2    2
     2     2     3    1
     3     3     4    1
     4     4     5    2
     5     5     6    1
     6     6     7    1
     7     7     8    2
     8     8     9    1
     9     9    10    2
    10     9    11   am
    11    11    12    1
    12    11    13    1
    13    13    14    1
    14    14    15    1
    15    16    15    1
    16    16    17    1
    17    17    18    1
    18    18    19    1
    19    19    20    1
    20    20    21    1
    21    21    22    1
    22    22    23    1
    23    15     2   am
    24    21    16    1
    25    12     3    2
    26    23    18    1
    27    12     7    1
@<TRIPOS>MOLECULE
*****
 23 27 0 0 0
SMALL
GASTEIGER

@<TRIPOS>ATOM
      1 O          63.6834   91.5749   12.9754 O.2     1  UNL1       -0.2699
      2 C          63.6344   90.0779   13.0580 C.2     1  UNL1        0.2503
      3 C          62.9053   89.3881   11.9433 C.2     1  UNL1        0.0679
      4 C          62.3460   90.3391   10.9272 C.2     1  UNL1        0.0016
      5 C          61.5868   89.8129    9.7455 C.2     1  UNL1       -0.0198
      6 C          61.3869   88.3355    9.5798 C.3     1  UNL1        0.0705
      7 C          61.9463   87.3844   10.5959 C.2     1  UNL1        0.0708
      8 N          61.9091   85.8883   10.6977 N.am    1  UNL1       -0.1647
      9 C          62.6454   85.4900   11.9425 C.2     1  UNL1        0.3311
     10 O          62.8529   84.0878   12.4335 O.2     1  UNL1       -0.2501
     11 N          63.1376   86.7398   12.6099 N.am    1  UNL1       -0.2388
     12 C          62.7055   87.9107   11.7777 C.2     1  UNL1        0.0713
     13 C          63.9199   86.8212   13.8777 C.3     1  UNL1        0.1213
     14 C          64.4480   88.0195   14.6093 C.3     1  UNL1        0.1156
     15 N          64.3209   89.4689   14.2445 N.am    1  UNL1       -0.2745
     16 C          65.2766   91.5866   15.5741 C.3     1  UNL1        0.0917
     17 C          66.4997   91.8797   15.0664 C.3     1  UNL1        0.0921
     18 N          67.2452   92.0957   14.7913 N.3     1  UNL1       -0.2713
     19 C          66.6782   92.9229   15.9067 C.3     1  UNL1        0.0722
     20 C          65.3255   92.5988   16.4681 C.3     1  UNL1        0.0191
     21 C          64.5397   91.4475   15.9141 C.3     1  UNL1        0.0224
     22 C          65.1067   90.6202   14.7986 C.3     1  UNL1        0.0191
     23 C          66.4594   90.9444   14.2372 C.3     1  UNL1        0.0722
@<TRIPOS>BOND
     1     1     2    2
     2     2     3    1
     3     3     4    1
     4     4     5    2
     5     5     6    1
     6     6     7    1
     7     7     8    2
     8     8     9    1
     9     9    10    2
    10     9    11   am
    11    11    12    1
    12    11    13    1
    13    13    14    1
    14    14    15    1
    15    16    15    1
    16    16    17    1
    17    17    18    1
    18    18    19    1
    19    19    20    1
    20    20    21    1
    21    21    22    1
    22    22    23    1
    23    15     2   am
    24    21    16    1
    25    12     3    2
    26    23    18    1
    27    12     7    1
@<TRIPOS>MOLECULE
*****
 23 27 0 0 0
SMALL
GASTEIGER

@<TRIPOS>ATOM
      1 O          65.1096   92.4035   10.0505 O.2     1  UNL1       -0.2699
      2 C          65.2722   92.5371   11.5357 C.2     1  UNL1        0.2503
      3 C          64.4201   91.6259   12.3685 C.2     1  UNL1        0.0679
      4 C          63.5417   90.7278   11.5488 C.2     1  UNL1        0.0016
      5 C          62.6251   89.7530   12.2266 C.2     1  UNL1       -0.0198
      6 C          62.5868   89.6763   13.7242 C.3     1  UNL1        0.0705
      7 C          63.4652   90.5744   14.5439 C.2     1  UNL1        0.0708
      8 N          63.6433   90.7242   16.0257 N.am    1  UNL1       -0.1647
      9 C          64.6699   91.7916   16.2637 C.2     1  UNL1        0.3311
     10 O          65.1550   92.2658   17.6016 O.2     1  UNL1       -0.2501
     11 N          65.1264   92.3015   14.9289 N.am    1  UNL1       -0.2388
     12 C          64.3818   91.5492   13.8660 C.2     1  UNL1        0.0713
     13 C          66.1409   93.3679   14.6845 C.3     1  UNL1        0.1213
     14 C          66.6522   93.9341   13.3931 C.3     1  UNL1        0.1156
     15 N          66.2657   93.5644   11.9917 N.am    1  UNL1       -0.2745
     16 C          67.1988   94.5960    9.7046 C.3     1  UNL1        0.0917
     17 C          66.5748   95.7823    9.4977 C.3     1  UNL1        0.0921
     18 N          66.2226   96.5074    9.3295 N.3     1  UNL1       -0.2713
     19 C          67.2363   96.0108    8.3417 C.3     1  UNL1        0.0722
     20 C          67.9264   94.6988    8.5705 C.3     1  UNL1        0.0191
     21 C          67.6029   93.8833    9.7872 C.3     1  UNL1        0.0224
     22 C          66.5892   94.3799   10.7750 C.3     1  UNL1        0.0191
     23 C          65.8991   95.6919   10.5462 C.3     1  UNL1        0.0722
@<TRIPOS>BOND
     1     1     2    2
     2     2     3    1
     3     3     4    1
     4     4     5    2
     5     5     6    1
     6     6     7    1
     7     7     8    2
     8     8     9    1
     9     9    10    2
    10     9    11   am
    11    11    12    1
    12    11    13    1
    13    13    14    1
    14    14    15    1
    15    16    15    1
    16    16    17    1
    17    17    18    1
    18    18    19    1
    19    19    20    1
    20    20    21    1
    21    21    22    1
    22    22    23    1
    23    15     2   am
    24    21    16    1
    25    12     3    2
    26    23    18    1
    27    12     7    1
