@<TRIPOS>MOLECULE
*****
 6 6 0 0 0
SMALL
GASTEIGER

@<TRIPOS>ATOM
      1 C          68.3912   92.8697    8.9542 C.ar    1  UNL1        0.0032
      2 C          68.0104   92.0182   10.1288 C.ar    1  UNL1        0.0207
      3 C          67.1903   92.5996   11.2421 C.ar    1  UNL1        0.0989
      4 N          66.7509   94.0324   11.1807 N.ar    1  UNL1       -0.2423
      5 C          67.1317   94.8839   10.0061 C.ar    1  UNL1        0.0989
      6 C          67.9518   94.3026    8.8928 C.ar    1  UNL1        0.0207
@<TRIPOS>BOND
     1     1     2   ar
     2     2     3   ar
     3     3     4   ar
     4     4     5   ar
     5     5     6   ar
     6     6     1   ar
@<TRIPOS>MOLECULE
*****
 6 6 0 0 0
SMALL
GASTEIGER

@<TRIPOS>ATOM
      1 C          68.3040   93.0500    8.9627 C.ar    1  UNL1        0.0032
      2 C          67.8516   94.4798    8.9897 C.ar    1  UNL1        0.0207
      3 C          67.0325   94.9858   10.1400 C.ar    1  UNL1        0.0989
      4 N          66.6659   94.0618   11.2633 N.ar    1  UNL1       -0.2423
      5 C          67.1183   92.6319   11.2363 C.ar    1  UNL1        0.0989
      6 C          67.9374   92.1260   10.0860 C.ar    1  UNL1        0.0207
@<TRIPOS>BOND
     1     1     2   ar
     2     2     3   ar
     3     3     4   ar
     4     4     5   ar
     5     5     6   ar
     6     6     1   ar
@<TRIPOS>MOLECULE
*****
 6 6 0 0 0
SMALL
GASTEIGER

@<TRIPOS>ATOM
      1 C          66.1743   92.4315   15.6176 C.ar    1  UNL1        0.0032
      2 C          66.0832   92.0260   14.1764 C.ar    1  UNL1        0.0207
      3 C          67.3163   92.0095   13.3225 C.ar    1  UNL1        0.0989
      4 N          68.6406   92.3985   13.9098 N.ar    1  UNL1       -0.2423
      5 C          68.7317   92.8039   15.3511 C.ar    1  UNL1        0.0989
      6 C          67.4986   92.8204   16.2050 C.ar    1  UNL1        0.0207
@<TRIPOS>BOND
     1     1     2   ar
     2     2     3   ar
     3     3     4   ar
     4     4     5   ar
     5     5     6   ar
     6     6     1   ar
@<TRIPOS>MOLECULE
*****
 6 6 0 0 0
SMALL
GASTEIGER

@<TRIPOS>ATOM
      1 C          62.9310   82.7258   11.9213 C.ar    1  UNL1        0.0032
      2 C          62.8426   81.2291   11.8756 C.ar    1  UNL1        0.0207
      3 C          62.5389   80.4573   13.1254 C.ar    1  UNL1        0.0989
      4 N          62.3236   81.1821   14.4209 N.ar    1  UNL1       -0.2423
      5 C          62.4120   82.6787   14.4665 C.ar    1  UNL1        0.0989
      6 C          62.7157   83.4506   13.2167 C.ar    1  UNL1        0.0207
@<TRIPOS>BOND
     1     1     2   ar
     2     2     3   ar
     3     3     4   ar
     4     4     5   ar
     5     5     6   ar
     6     6     1   ar
@<TRIPOS>MOLECULE
*****
 6 6 0 0 0
SMALL
GASTEIGER

@<TRIPOS>ATOM
      1 C          62.9728   82.4671   11.8588 C.ar    1  UNL1        0.0032
      2 C          62.7668   83.3447   13.0577 C.ar    1  UNL1        0.0207
      3 C          62.4027   82.7357   14.3793 C.ar    1  UNL1        0.0989
      4 N          62.2445   81.2492   14.5020 N.ar    1  UNL1       -0.2423
      5 C          62.4504   80.3716   13.3031 C.ar    1  UNL1        0.0989
      6 C          62.8146   80.9805   11.9815 C.ar    1  UNL1        0.0207
@<TRIPOS>BOND
     1     1     2   ar
     2     2     3   ar
     3     3     4   ar
     4     4     5   ar
     5     5     6   ar
     6     6     1   ar
@<TRIPOS>MOLECULE
*****
 6 6 0 0 0
SMALL
GASTEIGER

@<TRIPOS>ATOM
      1 C          62.6315   85.8385    8.8079 C.ar    1  UNL1        0.0032
      2 C          62.7691   84.9782    7.5869 C.ar    1  UNL1        0.0207
      3 C          61.5899   84.7616    6.6853 C.ar    1  UNL1        0.0989
      4 N          60.2733   85.4052    7.0049 N.ar    1  UNL1       -0.2423
      5 C          60.1358   86.2655    8.2259 C.ar    1  UNL1        0.0989
      6 C          61.3149   86.4821    9.1274 C.ar    1  UNL1        0.0207
@<TRIPOS>BOND
     1     1     2   ar
     2     2     3   ar
     3     3     4   ar
     4     4     5   ar
     5     5     6   ar
     6     6     1   ar
@<TRIPOS>MOLECULE
*****
 6 6 0 0 0
SMALL
GASTEIGER

@<TRIPOS>ATOM
      1 C          62.3246   80.9179   12.8245 C.ar    1  UNL1        0.0032
      2 C          62.0423   81.3806   14.2231 C.ar    1  UNL1        0.0207
      3 C          62.2503   82.8192   14.5935 C.ar    1  UNL1        0.0989
      4 N          62.7404   83.7951   13.5653 N.ar    1  UNL1       -0.2423
      5 C          63.0227   83.3324   12.1667 C.ar    1  UNL1        0.0989
      6 C          62.8148   81.8938   11.7963 C.ar    1  UNL1        0.0207
@<TRIPOS>BOND
     1     1     2   ar
     2     2     3   ar
     3     3     4   ar
     4     4     5   ar
     5     5     6   ar
     6     6     1   ar
@<TRIPOS>MOLECULE
*****
 6 6 0 0 0
SMALL
GASTEIGER

@<TRIPOS>ATOM
      1 C          68.3009   92.1959   14.5439 C.ar    1  UNL1        0.0032
      2 C          67.8152   92.5002   15.9301 C.ar    1  UNL1        0.0207
      3 C          66.3465   92.6539   16.1932 C.ar    1  UNL1        0.0989
      4 N          65.3635   92.5031   15.0703 N.ar    1  UNL1       -0.2423
      5 C          65.8493   92.1987   13.6842 C.ar    1  UNL1        0.0989
      6 C          67.3180   92.0451   13.4210 C.ar    1  UNL1        0.0207
@<TRIPOS>BOND
     1     1     2   ar
     2     2     3   ar
     3     3     4   ar
     4     4     5   ar
     5     5     6   ar
     6     6     1   ar
@<TRIPOS>MOLECULE
*****
 6 6 0 0 0
SMALL
GASTEIGER

@<TRIPOS>ATOM
      1 C          63.5723   83.8480    9.9737 C.ar    1  UNL1        0.0032
      2 C          62.7541   84.7490   10.8506 C.ar    1  UNL1        0.0207
      3 C          62.7111   84.5170   12.3319 C.ar    1  UNL1        0.0989
      4 N          63.4863   83.3840   12.9364 N.ar    1  UNL1       -0.2423
      5 C          64.3045   82.4831   12.0596 C.ar    1  UNL1        0.0989
      6 C          64.3475   82.7151   10.5782 C.ar    1  UNL1        0.0207
@<TRIPOS>BOND
     1     1     2   ar
     2     2     3   ar
     3     3     4   ar
     4     4     5   ar
     5     5     6   ar
     6     6     1   ar
