@<TRIPOS>MOLECULE
*****
 36 40 0 0 0
SMALL
GASTEIGER

@<TRIPOS>ATOM
      1 C          63.1102   91.5561    9.7946 C.3     1  UNL1        0.0309
      2 C          63.8196   91.5352   11.1161 C.2     1  UNL1       -0.0191
      3 C          63.5313   90.4448   12.1049 C.2     1  UNL1        0.0177
      4 C          64.2406   90.4240   13.4264 C.3     1  UNL1        0.2102
      5 O          65.2383   91.4935   13.7591 O.3     1  UNL1       -0.4703
      6 C          65.5266   92.5840   12.7702 C.ar    1  UNL1        0.1391
      7 C          66.5243   93.6536   13.1029 C.ar    1  UNL1        0.0400
      8 C          66.8126   94.7440   12.1140 C.ar    1  UNL1        0.0397
      9 C          66.1032   94.7648   10.7925 C.ar    1  UNL1        0.1339
     10 O          66.3916   95.8553    9.8036 O.3     1  UNL1       -0.5055
     11 C          65.1056   93.6953   10.4599 C.ar    1  UNL1        0.0393
     12 C          64.8173   92.6049   11.4487 C.ar    1  UNL1        0.0329
     13 H          67.0148   96.5234   10.0115 H       1  UNL1        0.2922
     14 C          62.5336   89.3752   11.7723 C.ar    1  UNL1        0.0024
     15 C          62.9729   88.1406   11.0425 C.ar    1  UNL1        0.0000
     16 C          61.9753   87.0710   10.7099 C.ar    1  UNL1        0.0031
     17 C          60.5383   87.2360   11.1070 C.ar    1  UNL1        0.0366
     18 C          60.0990   88.4707   11.8368 C.ar    1  UNL1        0.1337
     19 O          58.6619   88.6357   12.2339 O.3     1  UNL1       -0.5055
     20 C          61.0966   89.5403   12.1694 C.ar    1  UNL1        0.0364
     21 H          58.0387   87.9676   12.0261 H       1  UNL1        0.2922
     22 C          63.9523   89.3335   14.4153 C.ar    1  UNL1        0.0217
     23 C          64.4412   87.9391   14.1578 C.ar    1  UNL1        0.0026
     24 C          64.1529   86.8487   15.1467 C.ar    1  UNL1        0.0367
     25 C          63.3755   87.1528   16.3930 C.ar    1  UNL1        0.1386
     26 C          62.8866   88.5472   16.6505 C.ar    1  UNL1        0.0367
     27 C          63.1749   89.6376   15.6616 C.ar    1  UNL1        0.0026
     28 O          63.0872   86.0623   17.3819 O.3     1  UNL1       -0.4740
     29 C          62.8594   84.6585   16.9051 C.3     1  UNL1        0.2226
     30 C          62.0496   84.4089   15.6674 C.3     1  UNL1        0.1200
     31 N          62.7071   83.8484   14.4412 N.3     1  UNL1       -0.2693
     32 C          63.5610   82.6502   14.1493 C.3     1  UNL1        0.0764
     33 C          63.6371   83.0558   12.7072 C.3     1  UNL1        0.0673
     34 C          62.7832   84.2540   12.9991 C.3     1  UNL1        0.0764
     35 C          64.2946   82.4953   11.4810 C.3     1  UNL1        0.1959
     36 F          64.6813   83.4067   10.3542 F       1  UNL1       -0.2343
@<TRIPOS>BOND
     1     1     2    1
     2     2     3    2
     3     3    14    1
     4    14    15   ar
     5    15    16   ar
     6    16    17   ar
     7    17    18   ar
     8    18    19    1
     9    18    20   ar
    10     3     4    1
    11     4    22    1
    12    22    23   ar
    13    23    24   ar
    14    24    25   ar
    15    25    28    1
    16    28    29    1
    17    29    30    1
    18    30    31    1
    19    31    32    1
    20    32    33    1
    21    33    35    1
    22    35    36    1
    23    33    34    1
    24    25    26   ar
    25    26    27   ar
    26     4     5    1
    27     5     6    1
    28     6     7   ar
    29     7     8   ar
    30     8     9   ar
    31     9    10    1
    32     9    11   ar
    33    11    12   ar
    34    12     2    1
    35    20    14   ar
    36    27    22   ar
    37    12     6   ar
    38    34    31    1
    39    19    21    1
    40    10    13    1
@<TRIPOS>MOLECULE
*****
 36 40 0 0 0
SMALL
GASTEIGER

@<TRIPOS>ATOM
      1 C          61.4074   85.6159   10.2099 C.3     1  UNL1        0.0309
      2 C          62.2998   85.6825   11.4138 C.2     1  UNL1       -0.0191
      3 C          62.6052   87.0067   12.0486 C.2     1  UNL1        0.0177
      4 C          63.4975   87.0733   13.2525 C.3     1  UNL1        0.2102
      5 O          64.0844   85.8156   13.8216 O.3     1  UNL1       -0.4703
      6 C          63.7789   84.4913   13.1867 C.ar    1  UNL1        0.1391
      7 C          64.3658   83.2337   13.7558 C.ar    1  UNL1        0.0400
      8 C          64.0603   81.9094   13.1209 C.ar    1  UNL1        0.0397
      9 C          63.1680   81.8429   11.9170 C.ar    1  UNL1        0.1339
     10 O          62.8625   80.5185   11.2822 O.3     1  UNL1       -0.5055
     11 C          62.5811   83.1005   11.3480 C.ar    1  UNL1        0.0393
     12 C          62.8866   84.4247   11.9828 C.ar    1  UNL1        0.0329
     13 H          63.2291   79.7329   11.6377 H       1  UNL1        0.2922
     14 C          62.0184   88.2645   11.4796 C.ar    1  UNL1        0.0024
     15 C          62.7152   88.9769   10.3585 C.ar    1  UNL1        0.0000
     16 C          62.1285   90.2346    9.7894 C.ar    1  UNL1        0.0031
     17 C          60.8448   90.7798   10.3415 C.ar    1  UNL1        0.0366
     18 C          60.1479   90.0674   11.4626 C.ar    1  UNL1        0.1337
     19 O          58.8642   90.6128   12.0146 O.3     1  UNL1       -0.5055
     20 C          60.7347   88.8098   12.0316 C.ar    1  UNL1        0.0364
     21 H          58.4976   91.3985   11.6591 H       1  UNL1        0.2922
     22 C          63.8030   88.3976   13.8873 C.ar    1  UNL1        0.0217
     23 C          64.2491   89.5511   13.0386 C.ar    1  UNL1        0.0026
     24 C          64.5545   90.8753   13.6734 C.ar    1  UNL1        0.0367
     25 C          64.4138   91.0461   15.1570 C.ar    1  UNL1        0.1386
     26 C          63.9677   89.8926   16.0058 C.ar    1  UNL1        0.0367
     27 C          63.6623   88.5684   15.3709 C.ar    1  UNL1        0.0026
     28 O          64.7193   92.3704   15.7919 O.3     1  UNL1       -0.4740
     29 C          66.1112   92.6738   16.2614 C.3     1  UNL1        0.2226
     30 C          67.0683   93.3911   15.3563 C.3     1  UNL1        0.1200
     31 N          67.0449   93.1276   13.8797 N.3     1  UNL1       -0.2693
     32 C          67.6632   92.1031   12.9753 C.3     1  UNL1        0.0764
     33 C          67.0119   92.7549   11.7917 C.3     1  UNL1        0.0673
     34 C          66.3936   93.7794   12.6961 C.3     1  UNL1        0.0764
     35 C          66.9886   92.4913   10.3152 C.3     1  UNL1        0.1959
     36 F          68.1339   91.7753    9.6630 F       1  UNL1       -0.2343
@<TRIPOS>BOND
     1     1     2    1
     2     2     3    2
     3     3    14    1
     4    14    15   ar
     5    15    16   ar
     6    16    17   ar
     7    17    18   ar
     8    18    19    1
     9    18    20   ar
    10     3     4    1
    11     4    22    1
    12    22    23   ar
    13    23    24   ar
    14    24    25   ar
    15    25    28    1
    16    28    29    1
    17    29    30    1
    18    30    31    1
    19    31    32    1
    20    32    33    1
    21    33    35    1
    22    35    36    1
    23    33    34    1
    24    25    26   ar
    25    26    27   ar
    26     4     5    1
    27     5     6    1
    28     6     7   ar
    29     7     8   ar
    30     8     9   ar
    31     9    10    1
    32     9    11   ar
    33    11    12   ar
    34    12     2    1
    35    20    14   ar
    36    27    22   ar
    37    12     6   ar
    38    34    31    1
    39    19    21    1
    40    10    13    1
@<TRIPOS>MOLECULE
*****
 36 40 0 0 0
SMALL
GASTEIGER

@<TRIPOS>ATOM
      1 C          63.0623   91.6964   10.2521 C.3     1  UNL1        0.0309
      2 C          63.8060   91.2349   11.4703 C.2     1  UNL1       -0.0191
      3 C          63.5056   89.8926   12.0686 C.2     1  UNL1        0.0177
      4 C          64.2492   89.4311   13.2868 C.3     1  UNL1        0.2102
      5 O          65.2932   90.3119   13.9067 O.3     1  UNL1       -0.4703
      6 C          65.5936   91.6543   13.3084 C.ar    1  UNL1        0.1391
      7 C          66.6376   92.5350   13.9283 C.ar    1  UNL1        0.0400
      8 C          66.9379   93.8773   13.3300 C.ar    1  UNL1        0.0397
      9 C          66.1943   94.3388   12.1118 C.ar    1  UNL1        0.1339
     10 O          66.4947   95.6812   11.5135 O.3     1  UNL1       -0.5055
     11 C          65.1503   93.4581   11.4919 C.ar    1  UNL1        0.0393
     12 C          64.8500   92.1158   12.0902 C.ar    1  UNL1        0.0329
     13 H          67.1468   96.2314   11.9008 H       1  UNL1        0.2922
     14 C          62.4616   89.0118   11.4487 C.ar    1  UNL1        0.0024
     15 C          62.8433   88.0404   10.3713 C.ar    1  UNL1        0.0000
     16 C          61.7994   87.1596    9.7514 C.ar    1  UNL1        0.0031
     17 C          60.3738   87.2501   10.2089 C.ar    1  UNL1        0.0366
     18 C          59.9921   88.2215   11.2862 C.ar    1  UNL1        0.1337
     19 O          58.5664   88.3120   11.7437 O.3     1  UNL1       -0.5055
     20 C          61.0360   89.1023   11.9062 C.ar    1  UNL1        0.0364
     21 H          57.9142   87.7617   11.3565 H       1  UNL1        0.2922
     22 C          63.9489   88.0887   13.8851 C.ar    1  UNL1        0.0217
     23 C          63.6971   86.9094   12.9931 C.ar    1  UNL1        0.0026
     24 C          63.3967   85.5671   13.5914 C.ar    1  UNL1        0.0367
     25 C          63.3481   85.4042   15.0817 C.ar    1  UNL1        0.1386
     26 C          63.5999   86.5835   15.9737 C.ar    1  UNL1        0.0367
     27 C          63.9003   87.9258   15.3754 C.ar    1  UNL1        0.0026
     28 O          63.0477   84.0618   15.6800 O.3     1  UNL1       -0.4740
     29 C          61.9039   83.2457   15.1551 C.3     1  UNL1        0.2226
     30 C          62.1224   81.8155   14.7594 C.3     1  UNL1        0.1200
     31 N          62.4284   81.4705   13.3320 N.3     1  UNL1       -0.2693
     32 C          62.6996   82.2589   12.0850 C.3     1  UNL1        0.0764
     33 C          62.8612   80.9828   11.3134 C.3     1  UNL1        0.0673
     34 C          62.5900   80.1944   12.5604 C.3     1  UNL1        0.0764
     35 C          63.1672   80.6379    9.8860 C.3     1  UNL1        0.1959
     36 F          63.0520   79.2181    9.4162 F       1  UNL1       -0.2343
@<TRIPOS>BOND
     1     1     2    1
     2     2     3    2
     3     3    14    1
     4    14    15   ar
     5    15    16   ar
     6    16    17   ar
     7    17    18   ar
     8    18    19    1
     9    18    20   ar
    10     3     4    1
    11     4    22    1
    12    22    23   ar
    13    23    24   ar
    14    24    25   ar
    15    25    28    1
    16    28    29    1
    17    29    30    1
    18    30    31    1
    19    31    32    1
    20    32    33    1
    21    33    35    1
    22    35    36    1
    23    33    34    1
    24    25    26   ar
    25    26    27   ar
    26     4     5    1
    27     5     6    1
    28     6     7   ar
    29     7     8   ar
    30     8     9   ar
    31     9    10    1
    32     9    11   ar
    33    11    12   ar
    34    12     2    1
    35    20    14   ar
    36    27    22   ar
    37    12     6   ar
    38    34    31    1
    39    19    21    1
    40    10    13    1
@<TRIPOS>MOLECULE
*****
 36 40 0 0 0
SMALL
GASTEIGER

@<TRIPOS>ATOM
      1 C          56.7307   92.2851   -2.0987 C.3     1  UNL1        0.0309
      2 C          57.6973   92.8112   -3.1179 C.2     1  UNL1       -0.0191
      3 C          58.9861   93.4384   -2.6757 C.2     1  UNL1        0.0177
      4 C          59.9527   93.9645   -3.6950 C.3     1  UNL1        0.2102
      5 O          59.6306   93.8633   -5.1564 O.3     1  UNL1       -0.4703
      6 C          58.3418   93.2360   -5.5987 C.ar    1  UNL1        0.1391
      7 C          58.0197   93.1348   -7.0602 C.ar    1  UNL1        0.0400
      8 C          56.7309   92.5075   -7.5024 C.ar    1  UNL1        0.0397
      9 C          55.7643   91.9815   -6.4832 C.ar    1  UNL1        0.1339
     10 O          54.4755   91.3542   -6.9255 O.3     1  UNL1       -0.5055
     11 C          56.0864   92.0827   -5.0217 C.ar    1  UNL1        0.0393
     12 C          57.3752   92.7099   -4.5795 C.ar    1  UNL1        0.0329
     13 H          54.2743   91.2910   -7.8384 H       1  UNL1        0.2922
     14 C          59.3083   93.5396   -1.2142 C.ar    1  UNL1        0.0024
     15 C          59.7641   92.3253   -0.4608 C.ar    1  UNL1        0.0000
     16 C          60.0862   92.4264    1.0006 C.ar    1  UNL1        0.0031
     17 C          59.9526   93.7420    1.7088 C.ar    1  UNL1        0.0366
     18 C          59.4968   94.9563    0.9554 C.ar    1  UNL1        0.1337
     19 O          59.3631   96.2719    1.6636 O.3     1  UNL1       -0.5055
     20 C          59.1746   94.8552   -0.5061 C.ar    1  UNL1        0.0364
     21 H          59.5644   96.3351    2.5765 H       1  UNL1        0.2922
     22 C          61.2416   94.5917   -3.2527 C.ar    1  UNL1        0.0217
     23 C          61.3382   96.0811   -3.1028 C.ar    1  UNL1        0.0026
     24 C          62.6269   96.7083   -2.6606 C.ar    1  UNL1        0.0367
     25 C          63.8191   95.8461   -2.3681 C.ar    1  UNL1        0.1386
     26 C          63.7225   94.3568   -2.5179 C.ar    1  UNL1        0.0367
     27 C          62.4337   93.7296   -2.9602 C.ar    1  UNL1        0.0026
     28 O          65.1079   96.4734   -1.9258 O.3     1  UNL1       -0.4740
     29 C          65.7253   96.0761   -0.6178 C.3     1  UNL1        0.2226
     30 C          64.8931   96.0594    0.6300 C.3     1  UNL1        0.1200
     31 N          64.4072   94.7554    1.1900 N.3     1  UNL1       -0.2693
     32 C          63.3665   94.3538    2.1929 C.3     1  UNL1        0.0764
     33 C          63.7201   92.9114    1.9822 C.3     1  UNL1        0.0673
     34 C          64.7607   93.3129    0.9793 C.3     1  UNL1        0.0764
     35 C          63.2342   91.6075    2.5422 C.3     1  UNL1        0.1959
     36 F          64.1572   90.7508    3.3573 F       1  UNL1       -0.2343
@<TRIPOS>BOND
     1     1     2    1
     2     2     3    2
     3     3    14    1
     4    14    15   ar
     5    15    16   ar
     6    16    17   ar
     7    17    18   ar
     8    18    19    1
     9    18    20   ar
    10     3     4    1
    11     4    22    1
    12    22    23   ar
    13    23    24   ar
    14    24    25   ar
    15    25    28    1
    16    28    29    1
    17    29    30    1
    18    30    31    1
    19    31    32    1
    20    32    33    1
    21    33    35    1
    22    35    36    1
    23    33    34    1
    24    25    26   ar
    25    26    27   ar
    26     4     5    1
    27     5     6    1
    28     6     7   ar
    29     7     8   ar
    30     8     9   ar
    31     9    10    1
    32     9    11   ar
    33    11    12   ar
    34    12     2    1
    35    20    14   ar
    36    27    22   ar
    37    12     6   ar
    38    34    31    1
    39    19    21    1
    40    10    13    1
@<TRIPOS>MOLECULE
*****
 36 40 0 0 0
SMALL
GASTEIGER

@<TRIPOS>ATOM
      1 C          62.8994   91.6217   10.0231 C.3     1  UNL1        0.0309
      2 C          63.6746   91.1888   11.2321 C.2     1  UNL1       -0.0191
      3 C          63.4346   89.8350   11.8317 C.2     1  UNL1        0.0177
      4 C          64.2099   89.4020   13.0406 C.3     1  UNL1        0.2102
      5 O          65.2251   90.3229   13.6500 O.3     1  UNL1       -0.4703
      6 C          65.4651   91.6768   13.0504 C.ar    1  UNL1        0.1391
      7 C          66.4803   92.5976   13.6597 C.ar    1  UNL1        0.0400
      8 C          66.7203   93.9514   13.0601 C.ar    1  UNL1        0.0397
      9 C          65.9450   94.3844   11.8511 C.ar    1  UNL1        0.1339
     10 O          66.1851   95.7383   11.2515 O.3     1  UNL1       -0.5055
     11 C          64.9298   93.4635   11.2418 C.ar    1  UNL1        0.0393
     12 C          64.6899   92.1097   11.8414 C.ar    1  UNL1        0.0329
     13 H          66.8192   96.3135   11.6322 H       1  UNL1        0.2922
     14 C          62.4194   88.9140   11.2223 C.ar    1  UNL1        0.0024
     15 C          60.9968   88.9468   11.6968 C.ar    1  UNL1        0.0000
     16 C          59.9816   88.0259   11.0875 C.ar    1  UNL1        0.0031
     17 C          60.3890   87.0723   10.0038 C.ar    1  UNL1        0.0366
     18 C          61.8116   87.0396    9.5293 C.ar    1  UNL1        0.1337
     19 O          62.2189   86.0859    8.4455 O.3     1  UNL1       -0.5055
     20 C          62.8268   87.9604   10.1386 C.ar    1  UNL1        0.0364
     21 H          61.5847   85.5106    8.0649 H       1  UNL1        0.2922
     22 C          63.9699   88.0482   13.6402 C.ar    1  UNL1        0.0217
     23 C          64.1458   87.8392   15.1151 C.ar    1  UNL1        0.0026
     24 C          63.9058   86.4854   15.7147 C.ar    1  UNL1        0.0367
     25 C          63.4898   85.3405   14.8393 C.ar    1  UNL1        0.1386
     26 C          63.3139   85.5495   13.3644 C.ar    1  UNL1        0.0367
     27 C          63.5539   86.9033   12.7649 C.ar    1  UNL1        0.0026
     28 O          63.2498   83.9866   15.4389 O.3     1  UNL1       -0.4740
     29 C          64.1505   82.8400   15.0868 C.3     1  UNL1        0.2226
     30 C          63.7257   81.8441   14.0487 C.3     1  UNL1        0.1200
     31 N          62.3428   81.2641   14.0872 N.3     1  UNL1       -0.2693
     32 C          61.7411   79.9330   13.7465 C.3     1  UNL1        0.0764
     33 C          60.3872   80.4439   14.1417 C.3     1  UNL1        0.0673
     34 C          60.9890   81.7750   14.4824 C.3     1  UNL1        0.0764
     35 C          59.0044   79.8639   14.1802 C.3     1  UNL1        0.1959
     36 F          58.8130   78.3972   14.4289 F       1  UNL1       -0.2343
@<TRIPOS>BOND
     1     1     2    1
     2     2     3    2
     3     3    14    1
     4    14    15   ar
     5    15    16   ar
     6    16    17   ar
     7    17    18   ar
     8    18    19    1
     9    18    20   ar
    10     3     4    1
    11     4    22    1
    12    22    23   ar
    13    23    24   ar
    14    24    25   ar
    15    25    28    1
    16    28    29    1
    17    29    30    1
    18    30    31    1
    19    31    32    1
    20    32    33    1
    21    33    35    1
    22    35    36    1
    23    33    34    1
    24    25    26   ar
    25    26    27   ar
    26     4     5    1
    27     5     6    1
    28     6     7   ar
    29     7     8   ar
    30     8     9   ar
    31     9    10    1
    32     9    11   ar
    33    11    12   ar
    34    12     2    1
    35    20    14   ar
    36    27    22   ar
    37    12     6   ar
    38    34    31    1
    39    19    21    1
    40    10    13    1
