@<TRIPOS>MOLECULE
*****
 24 25 0 0 0
SMALL
GASTEIGER

@<TRIPOS>ATOM
      1 C          62.6247   83.1835   13.7128 C.ar    1  UNL1        0.0711
      2 C          62.0880   81.9700   14.4124 C.ar    1  UNL1        0.0038
      3 C          62.0810   80.6429   13.7133 C.ar    1  UNL1        0.0000
      4 C          62.6106   80.5293   12.3145 C.ar    1  UNL1        0.0031
      5 C          63.1473   81.7427   11.6149 C.ar    1  UNL1        0.0373
      6 C          63.1543   83.0698   12.3140 C.ar    1  UNL1        0.1461
      7 C          62.6317   84.5105   14.4119 C.3     1  UNL1        0.2859
      8 S          63.8513   84.9563   15.1627 S.O     1  UNL1        0.0448
      9 O          65.2075   84.8267   14.5350 O.co2   1  UNL1       -0.6807
     10 C          63.7148   85.5316   16.5412 C.3     1  UNL1        0.3397
     11 N          63.0886   88.0488   16.6895 N.am    1  UNL1       -0.3246
     12 C          62.7013   86.6046   16.8092 C.2     1  UNL1        0.2798
     13 O          61.3007   86.2332   17.1969 O.2     1  UNL1       -0.2697
     14 H          62.4234   88.7529   16.8653 H       1  UNL1        0.1451
     15 H          64.0079   88.2924   16.4350 H       1  UNL1        0.1451
     16 O          63.6909   84.2833   11.6143 O.3     1  UNL1       -0.4536
     17 C          62.8108   85.0625   10.6826 C.ar    1  UNL1        0.1462
     18 C          62.9329   84.8712    9.1998 C.ar    1  UNL1        0.0384
     19 C          62.0528   85.6504    8.2681 C.ar    1  UNL1        0.0154
     20 C          61.0504   86.6208    8.8191 C.ar    1  UNL1        0.0684
     21 CL         60.1702   87.3999    7.8873 Cl      1  UNL1       -0.0814
     22 C          60.9282   86.8120   10.3018 C.ar    1  UNL1        0.0712
     23 CL         59.9258   87.7824   10.8527 Cl      1  UNL1       -0.0813
     24 C          61.8084   86.0328   11.2336 C.ar    1  UNL1        0.0497
@<TRIPOS>UNITY_ATOM_ATTR
8 1
charge 1
9 1
charge -1
@<TRIPOS>BOND
     1    11    12   am
     2    12    13    2
     3    12    10    1
     4    10     8    1
     5     8     9    2
     6     8     7    1
     7     7     1    1
     8     1     2   ar
     9     2     3   ar
    10     3     4   ar
    11     4     5   ar
    12     5     6   ar
    13     6    16    1
    14    16    17    1
    15    17    18   ar
    16    18    19   ar
    17    19    20   ar
    18    20    21    1
    19    20    22   ar
    20    22    23    1
    21    22    24   ar
    22     6     1   ar
    23    24    17   ar
    24    11    14    1
    25    11    15    1
@<TRIPOS>MOLECULE
*****
 24 25 0 0 0
SMALL
GASTEIGER

@<TRIPOS>ATOM
      1 C          62.7775   85.2374   11.5401 C.ar    1  UNL1        0.0711
      2 C          63.3339   84.0502   10.8115 C.ar    1  UNL1        0.0038
      3 C          63.4053   84.0555    9.3132 C.ar    1  UNL1        0.0000
      4 C          62.9204   85.2481    8.5435 C.ar    1  UNL1        0.0031
      5 C          62.3640   86.4353    9.2720 C.ar    1  UNL1        0.0373
      6 C          62.2925   86.4300   10.7703 C.ar    1  UNL1        0.1461
      7 C          62.7061   85.2320   13.0383 C.3     1  UNL1        0.2859
      8 S          63.2030   84.0448   13.8087 S.O     1  UNL1        0.0448
      9 O          64.6730   83.7520   13.8696 O.co2   1  UNL1       -0.6807
     10 C          62.2301   83.1503   14.5180 C.3     1  UNL1        0.3397
     11 N          63.5099   80.9384   14.0492 N.am    1  UNL1       -0.3246
     12 C          62.2176   81.6781   14.2304 C.2     1  UNL1        0.2798
     13 O          60.9129   80.9457   14.1240 O.2     1  UNL1       -0.2697
     14 H          63.5017   79.9722   13.8604 H       1  UNL1        0.1451
     15 H          64.3662   81.4191   14.1191 H       1  UNL1        0.1451
     16 O          61.7361   87.6173   11.4989 O.3     1  UNL1       -0.4536
     17 C          62.5604   88.8620   11.6441 C.ar    1  UNL1        0.1462
     18 C          62.5766   89.8833   10.5455 C.ar    1  UNL1        0.0384
     19 C          63.4009   91.1280   10.6907 C.ar    1  UNL1        0.0154
     20 C          64.2090   91.3516   11.9345 C.ar    1  UNL1        0.0684
     21 CL         65.0333   92.5963   12.0797 Cl      1  UNL1       -0.0814
     22 C          64.1928   90.3304   13.0331 C.ar    1  UNL1        0.0712
     23 CL         65.0009   90.5540   14.2769 Cl      1  UNL1       -0.0813
     24 C          63.3685   89.0856   12.8879 C.ar    1  UNL1        0.0497
@<TRIPOS>UNITY_ATOM_ATTR
8 1
charge 1
9 1
charge -1
@<TRIPOS>BOND
     1    11    12   am
     2    12    13    2
     3    12    10    1
     4    10     8    1
     5     8     9    2
     6     8     7    1
     7     7     1    1
     8     1     2   ar
     9     2     3   ar
    10     3     4   ar
    11     4     5   ar
    12     5     6   ar
    13     6    16    1
    14    16    17    1
    15    17    18   ar
    16    18    19   ar
    17    19    20   ar
    18    20    21    1
    19    20    22   ar
    20    22    23    1
    21    22    24   ar
    22     6     1   ar
    23    24    17   ar
    24    11    14    1
    25    11    15    1
@<TRIPOS>MOLECULE
*****
 24 25 0 0 0
SMALL
GASTEIGER

@<TRIPOS>ATOM
      1 C          61.3821   87.5238    9.4169 C.ar    1  UNL1        0.0711
      2 C          60.0560   88.1211    9.0498 C.ar    1  UNL1        0.0038
      3 C          59.1751   87.4337    8.0490 C.ar    1  UNL1        0.0000
      4 C          59.6202   86.1491    7.4153 C.ar    1  UNL1        0.0031
      5 C          60.9463   85.5518    7.7825 C.ar    1  UNL1        0.0373
      6 C          61.8272   86.2392    8.7833 C.ar    1  UNL1        0.1461
      7 C          62.2630   88.2111   10.4177 C.3     1  UNL1        0.2859
      8 S          61.9854   89.6319   10.8104 S.O     1  UNL1        0.0448
      9 O          62.4740   90.7576    9.9477 O.co2   1  UNL1       -0.6807
     10 C          61.2192   89.9271   12.0657 C.3     1  UNL1        0.3397
     11 N          58.9777   88.7292   12.6049 N.am    1  UNL1       -0.3246
     12 C          59.7194   89.9093   12.0506 C.2     1  UNL1        0.2798
     13 O          58.9612   91.0717   11.4813 O.2     1  UNL1       -0.2697
     14 H          57.9933   88.7175   12.5950 H       1  UNL1        0.1451
     15 H          59.4753   87.9663   12.9785 H       1  UNL1        0.1451
     16 O          63.1533   85.6418    9.1504 O.3     1  UNL1       -0.4536
     17 C          63.2292   84.5701   10.1971 C.ar    1  UNL1        0.1462
     18 C          63.7971   83.2250    9.8535 C.ar    1  UNL1        0.0384
     19 C          63.8730   82.1533   10.9002 C.ar    1  UNL1        0.0154
     20 C          63.3809   82.4267   12.2906 C.ar    1  UNL1        0.0684
     21 CL         63.4568   81.3550   13.3374 Cl      1  UNL1       -0.0814
     22 C          62.8130   83.7718   12.6342 C.ar    1  UNL1        0.0712
     23 CL         62.3209   84.0452   14.0246 Cl      1  UNL1       -0.0813
     24 C          62.7371   84.8436   11.5875 C.ar    1  UNL1        0.0497
@<TRIPOS>UNITY_ATOM_ATTR
8 1
charge 1
9 1
charge -1
@<TRIPOS>BOND
     1    11    12   am
     2    12    13    2
     3    12    10    1
     4    10     8    1
     5     8     9    2
     6     8     7    1
     7     7     1    1
     8     1     2   ar
     9     2     3   ar
    10     3     4   ar
    11     4     5   ar
    12     5     6   ar
    13     6    16    1
    14    16    17    1
    15    17    18   ar
    16    18    19   ar
    17    19    20   ar
    18    20    21    1
    19    20    22   ar
    20    22    23    1
    21    22    24   ar
    22     6     1   ar
    23    24    17   ar
    24    11    14    1
    25    11    15    1
@<TRIPOS>MOLECULE
*****
 24 25 0 0 0
SMALL
GASTEIGER

@<TRIPOS>ATOM
      1 C          62.6578   82.9157   12.8245 C.ar    1  UNL1        0.0711
      2 C          62.7589   81.4695   12.4395 C.ar    1  UNL1        0.0038
      3 C          63.3402   81.0858   11.1110 C.ar    1  UNL1        0.0000
      4 C          63.8205   82.1484   10.1675 C.ar    1  UNL1        0.0031
      5 C          63.7194   83.5946   10.5525 C.ar    1  UNL1        0.0373
      6 C          63.1380   83.9782   11.8810 C.ar    1  UNL1        0.1461
      7 C          62.0764   83.2993   14.1529 C.3     1  UNL1        0.2859
      8 S          62.9793   83.7306   15.2704 S.O     1  UNL1        0.0448
      9 O          64.2115   82.9363   15.5881 O.co2   1  UNL1       -0.6807
     10 C          62.6501   84.9561   16.0701 C.3     1  UNL1        0.3397
     11 N          64.6484   86.2069   14.9782 N.am    1  UNL1       -0.3246
     12 C          63.5018   86.1846   15.9451 C.2     1  UNL1        0.2798
     13 O          63.2070   87.3905   16.7868 O.2     1  UNL1       -0.2697
     14 H          65.2075   87.0131   14.8961 H       1  UNL1        0.1451
     15 H          64.8419   85.4153   14.4257 H       1  UNL1        0.1451
     16 O          63.0369   85.4245   12.2659 O.3     1  UNL1       -0.4536
     17 C          62.3285   86.3925   11.3654 C.ar    1  UNL1        0.1462
     18 C          61.2747   85.9016   10.4174 C.ar    1  UNL1        0.0384
     19 C          60.5662   86.8696    9.5169 C.ar    1  UNL1        0.0154
     20 C          60.9114   88.3286    9.5644 C.ar    1  UNL1        0.0684
     21 CL         60.2030   89.2966    8.6639 Cl      1  UNL1       -0.0814
     22 C          61.9651   88.8195   10.5123 C.ar    1  UNL1        0.0712
     23 CL         62.3103   90.2785   10.5598 Cl      1  UNL1       -0.0813
     24 C          62.6737   87.8515   11.4129 C.ar    1  UNL1        0.0497
@<TRIPOS>UNITY_ATOM_ATTR
8 1
charge 1
9 1
charge -1
@<TRIPOS>BOND
     1    11    12   am
     2    12    13    2
     3    12    10    1
     4    10     8    1
     5     8     9    2
     6     8     7    1
     7     7     1    1
     8     1     2   ar
     9     2     3   ar
    10     3     4   ar
    11     4     5   ar
    12     5     6   ar
    13     6    16    1
    14    16    17    1
    15    17    18   ar
    16    18    19   ar
    17    19    20   ar
    18    20    21    1
    19    20    22   ar
    20    22    23    1
    21    22    24   ar
    22     6     1   ar
    23    24    17   ar
    24    11    14    1
    25    11    15    1
@<TRIPOS>MOLECULE
*****
 24 25 0 0 0
SMALL
GASTEIGER

@<TRIPOS>ATOM
      1 C          60.4175   87.2653    9.8453 C.ar    1  UNL1        0.0711
      2 C          59.2902   87.4114    8.8667 C.ar    1  UNL1        0.0038
      3 C          59.3101   86.6419    7.5793 C.ar    1  UNL1        0.0000
      4 C          60.4574   85.7262    7.2705 C.ar    1  UNL1        0.0031
      5 C          61.5847   85.5801    8.2492 C.ar    1  UNL1        0.0373
      6 C          61.5647   86.3497    9.5366 C.ar    1  UNL1        0.1461
      7 C          60.3976   88.0349   11.1327 C.3     1  UNL1        0.2859
      8 S          60.7574   89.4911   11.1417 S.O     1  UNL1        0.0448
      9 O          59.6797   90.5305   11.0508 O.co2   1  UNL1       -0.6807
     10 C          62.1948   89.9079   11.2415 C.3     1  UNL1        0.3397
     11 N          63.1605   90.8525   13.4608 N.am    1  UNL1       -0.3246
     12 C          62.9482   89.7019   12.5222 C.2     1  UNL1        0.2798
     13 O          63.4892   88.3453   12.8642 O.2     1  UNL1       -0.2697
     14 H          63.6550   90.7173   14.3014 H       1  UNL1        0.1451
     15 H          62.8054   91.7429   13.2363 H       1  UNL1        0.1451
     16 O          62.6921   86.2035   10.5152 O.3     1  UNL1       -0.4536
     17 C          62.9141   84.8948   11.2136 C.ar    1  UNL1        0.1462
     18 C          63.5423   83.7488   10.4772 C.ar    1  UNL1        0.0384
     19 C          63.7643   82.4400   11.1756 C.ar    1  UNL1        0.0154
     20 C          63.3582   82.2771   12.6104 C.ar    1  UNL1        0.0684
     21 CL         63.5802   80.9684   13.3088 Cl      1  UNL1       -0.0814
     22 C          62.7301   83.4231   13.3468 C.ar    1  UNL1        0.0712
     23 CL         62.3240   83.2602   14.7815 Cl      1  UNL1       -0.0813
     24 C          62.5080   84.7319   12.6484 C.ar    1  UNL1        0.0497
@<TRIPOS>UNITY_ATOM_ATTR
8 1
charge 1
9 1
charge -1
@<TRIPOS>BOND
     1    11    12   am
     2    12    13    2
     3    12    10    1
     4    10     8    1
     5     8     9    2
     6     8     7    1
     7     7     1    1
     8     1     2   ar
     9     2     3   ar
    10     3     4   ar
    11     4     5   ar
    12     5     6   ar
    13     6    16    1
    14    16    17    1
    15    17    18   ar
    16    18    19   ar
    17    19    20   ar
    18    20    21    1
    19    20    22   ar
    20    22    23    1
    21    22    24   ar
    22     6     1   ar
    23    24    17   ar
    24    11    14    1
    25    11    15    1
@<TRIPOS>MOLECULE
*****
 24 25 0 0 0
SMALL
GASTEIGER

@<TRIPOS>ATOM
      1 C          62.9949   84.3028   12.3687 C.ar    1  UNL1        0.0711
      2 C          63.8728   83.1217   12.0788 C.ar    1  UNL1        0.0038
      3 C          64.2929   82.8274   10.6692 C.ar    1  UNL1        0.0000
      4 C          63.8351   83.7144    9.5495 C.ar    1  UNL1        0.0031
      5 C          62.9572   84.8955    9.8395 C.ar    1  UNL1        0.0373
      6 C          62.5371   85.1898   11.2491 C.ar    1  UNL1        0.1461
      7 C          62.5748   84.5971   13.7783 C.3     1  UNL1        0.2859
      8 S          63.4990   84.2833   14.9173 S.O     1  UNL1        0.0448
      9 O          63.6922   82.8621   15.3567 O.co2   1  UNL1       -0.6807
     10 C          64.2300   85.3906   15.6171 C.3     1  UNL1        0.3397
     11 N          62.6235   86.1055   17.5297 N.am    1  UNL1       -0.3246
     12 C          63.4615   86.4590   16.3369 C.2     1  UNL1        0.2798
     13 O          63.5311   87.8807   15.8639 O.2     1  UNL1       -0.2697
     14 H          62.1191   86.8067   18.0021 H       1  UNL1        0.1451
     15 H          62.5778   85.1723   17.8401 H       1  UNL1        0.1451
     16 O          61.6592   86.3710   11.5389 O.3     1  UNL1       -0.4536
     17 C          62.1787   87.7619   11.3257 C.ar    1  UNL1        0.1462
     18 C          61.8977   88.4784   10.0382 C.ar    1  UNL1        0.0384
     19 C          62.4172   89.8692    9.8249 C.ar    1  UNL1        0.0154
     20 C          63.2178   90.5437   10.8992 C.ar    1  UNL1        0.0684
     21 CL         63.7373   91.9346   10.6860 Cl      1  UNL1       -0.0814
     22 C          63.4989   89.8273   12.1867 C.ar    1  UNL1        0.0712
     23 CL         64.2995   90.5018   13.2610 Cl      1  UNL1       -0.0813
     24 C          62.9793   88.4364   12.4000 C.ar    1  UNL1        0.0497
@<TRIPOS>UNITY_ATOM_ATTR
8 1
charge 1
9 1
charge -1
@<TRIPOS>BOND
     1    11    12   am
     2    12    13    2
     3    12    10    1
     4    10     8    1
     5     8     9    2
     6     8     7    1
     7     7     1    1
     8     1     2   ar
     9     2     3   ar
    10     3     4   ar
    11     4     5   ar
    12     5     6   ar
    13     6    16    1
    14    16    17    1
    15    17    18   ar
    16    18    19   ar
    17    19    20   ar
    18    20    21    1
    19    20    22   ar
    20    22    23    1
    21    22    24   ar
    22     6     1   ar
    23    24    17   ar
    24    11    14    1
    25    11    15    1
@<TRIPOS>MOLECULE
*****
 24 25 0 0 0
SMALL
GASTEIGER

@<TRIPOS>ATOM
      1 C          62.5869   83.4312   12.8848 C.ar    1  UNL1        0.0711
      2 C          62.8664   81.9867   12.5931 C.ar    1  UNL1        0.0038
      3 C          63.4974   81.5930   11.2905 C.ar    1  UNL1        0.0000
      4 C          63.8489   82.6439   10.2796 C.ar    1  UNL1        0.0031
      5 C          63.5695   84.0884   10.5713 C.ar    1  UNL1        0.0373
      6 C          62.9385   84.4821   11.8739 C.ar    1  UNL1        0.1461
      7 C          61.9559   83.8249   14.1875 C.3     1  UNL1        0.2859
      8 S          62.8064   84.3587   15.3018 S.O     1  UNL1        0.0448
      9 O          62.1625   84.8967   16.5452 O.co2   1  UNL1       -0.6807
     10 C          64.3009   84.3545   15.1727 C.3     1  UNL1        0.3397
     11 N          64.2619   86.8949   14.6291 N.am    1  UNL1       -0.3246
     12 C          65.0304   85.6280   14.8626 C.2     1  UNL1        0.2798
     13 O          66.5284   85.6346   14.7859 O.2     1  UNL1       -0.2697
     14 H          64.7407   87.7307   14.4256 H       1  UNL1        0.1451
     15 H          63.2787   86.8905   14.6795 H       1  UNL1        0.1451
     16 O          62.6591   85.9267   12.1656 O.3     1  UNL1       -0.4536
     17 C          61.9996   86.7873   11.1291 C.ar    1  UNL1        0.1462
     18 C          62.3106   88.2532   11.0628 C.ar    1  UNL1        0.0384
     19 C          61.6512   89.1137   10.0262 C.ar    1  UNL1        0.0154
     20 C          60.6806   88.5084    9.0559 C.ar    1  UNL1        0.0684
     21 CL         60.0211   89.3689    8.0193 Cl      1  UNL1       -0.0814
     22 C          60.3696   87.0425    9.1221 C.ar    1  UNL1        0.0712
     23 CL         59.3990   86.4372    8.1517 Cl      1  UNL1       -0.0813
     24 C          61.0291   86.1819   10.1587 C.ar    1  UNL1        0.0497
@<TRIPOS>UNITY_ATOM_ATTR
8 1
charge 1
9 1
charge -1
@<TRIPOS>BOND
     1    11    12   am
     2    12    13    2
     3    12    10    1
     4    10     8    1
     5     8     9    2
     6     8     7    1
     7     7     1    1
     8     1     2   ar
     9     2     3   ar
    10     3     4   ar
    11     4     5   ar
    12     5     6   ar
    13     6    16    1
    14    16    17    1
    15    17    18   ar
    16    18    19   ar
    17    19    20   ar
    18    20    21    1
    19    20    22   ar
    20    22    23    1
    21    22    24   ar
    22     6     1   ar
    23    24    17   ar
    24    11    14    1
    25    11    15    1
@<TRIPOS>MOLECULE
*****
 24 25 0 0 0
SMALL
GASTEIGER

@<TRIPOS>ATOM
      1 C          61.5568   86.6444   10.4829 C.ar    1  UNL1        0.0711
      2 C          61.2502   85.8406    9.2541 C.ar    1  UNL1        0.0038
      3 C          60.3593   86.4086    8.1893 C.ar    1  UNL1        0.0000
      4 C          59.7751   87.7803    8.3533 C.ar    1  UNL1        0.0031
      5 C          60.0817   88.5841    9.5821 C.ar    1  UNL1        0.0373
      6 C          60.9726   88.0161   10.6469 C.ar    1  UNL1        0.1461
      7 C          62.4477   86.0764   11.5476 C.3     1  UNL1        0.2859
      8 S          62.8486   84.6318   11.4982 S.O     1  UNL1        0.0448
      9 O          63.4752   84.0694   10.2568 O.co2   1  UNL1       -0.6807
     10 C          62.6228   83.7496   12.6902 C.3     1  UNL1        0.3397
     11 N          64.8789   82.5373   12.2534 N.am    1  UNL1       -0.3246
     12 C          63.6993   82.8067   13.1400 C.2     1  UNL1        0.2798
     13 O          63.5962   82.1333   14.4763 O.2     1  UNL1       -0.2697
     14 H          65.5854   81.9185   12.5487 H       1  UNL1        0.1451
     15 H          64.9466   82.9793   11.3764 H       1  UNL1        0.1451
     16 O          61.2792   88.8199   11.8757 O.3     1  UNL1       -0.4536
     17 C          62.4037   89.8125   11.8613 C.ar    1  UNL1        0.1462
     18 C          62.6736   90.6223   10.6278 C.ar    1  UNL1        0.0384
     19 C          63.7980   91.6149   10.6135 C.ar    1  UNL1        0.0154
     20 C          64.6526   91.7978   11.8326 C.ar    1  UNL1        0.0684
     21 CL         65.7771   92.7904   11.8182 Cl      1  UNL1       -0.0814
     22 C          64.3828   90.9881   13.0660 C.ar    1  UNL1        0.0712
     23 CL         65.2374   91.1710   14.2851 Cl      1  UNL1       -0.0813
     24 C          63.2583   89.9954   13.0804 C.ar    1  UNL1        0.0497
@<TRIPOS>UNITY_ATOM_ATTR
8 1
charge 1
9 1
charge -1
@<TRIPOS>BOND
     1    11    12   am
     2    12    13    2
     3    12    10    1
     4    10     8    1
     5     8     9    2
     6     8     7    1
     7     7     1    1
     8     1     2   ar
     9     2     3   ar
    10     3     4   ar
    11     4     5   ar
    12     5     6   ar
    13     6    16    1
    14    16    17    1
    15    17    18   ar
    16    18    19   ar
    17    19    20   ar
    18    20    21    1
    19    20    22   ar
    20    22    23    1
    21    22    24   ar
    22     6     1   ar
    23    24    17   ar
    24    11    14    1
    25    11    15    1
@<TRIPOS>MOLECULE
*****
 24 25 0 0 0
SMALL
GASTEIGER

@<TRIPOS>ATOM
      1 C          63.3218   83.9877   12.6762 C.ar    1  UNL1        0.0711
      2 C          64.1120   82.7585   12.3376 C.ar    1  UNL1        0.0038
      3 C          64.4086   82.4288   10.9046 C.ar    1  UNL1        0.0000
      4 C          63.9152   83.3282    9.8104 C.ar    1  UNL1        0.0031
      5 C          63.1250   84.5574   10.1491 C.ar    1  UNL1        0.0373
      6 C          62.8284   84.8871   11.5820 C.ar    1  UNL1        0.1461
      7 C          63.0252   84.3174   14.1092 C.3     1  UNL1        0.2859
      8 S          64.0468   85.0349   14.9407 S.O     1  UNL1        0.0448
      9 O          65.5022   84.9356   14.5912 O.co2   1  UNL1       -0.6807
     10 C          63.6132   85.8515   16.1218 C.3     1  UNL1        0.3397
     11 N          64.2075   88.0467   14.8656 N.am    1  UNL1       -0.3246
     12 C          63.5485   87.3465   16.0169 C.2     1  UNL1        0.2798
     13 O          62.8248   88.1412   17.0631 O.2     1  UNL1       -0.2697
     14 H          64.1651   89.0279   14.7967 H       1  UNL1        0.1451
     15 H          64.6825   87.5251   14.1789 H       1  UNL1        0.1451
     16 O          62.0382   86.1164   11.9206 O.3     1  UNL1       -0.4536
     17 C          61.4606   86.9622   10.8248 C.ar    1  UNL1        0.1462
     18 C          61.8335   88.4114   10.7202 C.ar    1  UNL1        0.0384
     19 C          61.2559   89.2572    9.6243 C.ar    1  UNL1        0.0154
     20 C          60.3054   88.6539    8.6331 C.ar    1  UNL1        0.0684
     21 CL         59.7278   89.4998    7.5372 Cl      1  UNL1       -0.0814
     22 C          59.9325   87.2048    8.7376 C.ar    1  UNL1        0.0712
     23 CL         58.9820   86.6015    7.7464 Cl      1  UNL1       -0.0813
     24 C          60.5101   86.3589    9.8335 C.ar    1  UNL1        0.0497
@<TRIPOS>UNITY_ATOM_ATTR
8 1
charge 1
9 1
charge -1
@<TRIPOS>BOND
     1    11    12   am
     2    12    13    2
     3    12    10    1
     4    10     8    1
     5     8     9    2
     6     8     7    1
     7     7     1    1
     8     1     2   ar
     9     2     3   ar
    10     3     4   ar
    11     4     5   ar
    12     5     6   ar
    13     6    16    1
    14    16    17    1
    15    17    18   ar
    16    18    19   ar
    17    19    20   ar
    18    20    21    1
    19    20    22   ar
    20    22    23    1
    21    22    24   ar
    22     6     1   ar
    23    24    17   ar
    24    11    14    1
    25    11    15    1
