@<TRIPOS>MOLECULE
*****
 36 40 0 0 0
SMALL
GASTEIGER

@<TRIPOS>ATOM
      1 C          62.3863   88.6510   12.0275 C.ar    1  UNL1        0.1453
      2 C          63.1093   89.5673   11.0853 C.ar    1  UNL1        0.0375
      3 C          63.9892   90.6557   11.6249 C.ar    1  UNL1        0.0033
      4 C          64.1462   90.8277   13.1067 C.ar    1  UNL1        0.0046
      5 C          65.0262   91.9161   13.6463 C.ar    1  UNL1        0.0537
      6 C          65.1832   92.0882   15.1281 C.ar    1  UNL1        0.0045
      7 C          64.4602   91.1718   16.0703 C.ar    1  UNL1        0.0001
      8 C          63.5803   90.0835   15.5307 C.ar    1  UNL1        0.0001
      9 C          63.4233   89.9114   14.0489 C.ar    1  UNL1        0.0032
     10 C          62.5434   88.8230   13.5093 C.ar    1  UNL1        0.0375
     11 C          65.7491   92.8324   12.7041 C.2     1  UNL1        0.2495
     12 O          67.0895   93.3902   13.0811 O.2     1  UNL1       -0.2698
     13 N          65.1316   93.1908   11.3850 N.am    1  UNL1       -0.2804
     14 H          64.2518   92.8247   11.1376 H       1  UNL1        0.1552
     15 C          65.8545   94.1072   10.4427 C.ar    1  UNL1        0.0506
     16 C          66.9197   93.5635    9.5374 C.ar    1  UNL1        0.0155
     17 C          67.6426   94.4798    8.5951 C.ar    1  UNL1        0.0127
     18 C          67.3003   95.9397    8.5582 C.ar    1  UNL1        0.0578
     19 CL         68.0232   96.8560    7.6160 Cl      1  UNL1       -0.0822
     20 C          66.2351   96.4833    9.4636 C.ar    1  UNL1        0.0127
     21 C          65.5122   95.5671   10.4059 C.ar    1  UNL1        0.0155
     22 O          61.5064   87.5626   11.4879 O.3     1  UNL1       -0.4534
     23 C          63.4243   82.6299   12.6012 C.ar    1  UNL1        0.1739
     24 C          63.5731   82.8094   11.1195 C.ar    1  UNL1        0.0592
     25 C          63.1308   84.0875   10.4707 C.ar    1  UNL1        0.0875
     26 N          63.2796   84.2670    8.9889 N.ar    1  UNL1       -0.2435
     27 C          62.8373   85.5451    8.3402 C.ar    1  UNL1        0.1020
     28 C          62.2463   86.6436    9.1732 C.ar    1  UNL1        0.0581
     29 C          62.0975   86.4641   10.6549 C.ar    1  UNL1        0.1483
     30 C          62.5397   85.1860   11.3037 C.ar    1  UNL1        0.0554
     31 C          62.3910   85.0065   12.7855 C.ar    1  UNL1        0.0446
     32 C          62.8333   83.7284   13.4342 C.ar    1  UNL1        0.1726
     33 C          62.8702   80.2632   13.5190 C.3     1  UNL1        0.2526
     34 O          63.8666   81.3517   13.2501 O.3     1  UNL1       -0.4683
     35 O          62.6845   83.5488   14.9160 O.3     1  UNL1       -0.4684
     36 C          62.4260   84.7377   15.7934 C.3     1  UNL1        0.2526
@<TRIPOS>BOND
     1    33    34    1
     2    34    23    1
     3    23    24   ar
     4    24    25   ar
     5    25    26   ar
     6    26    27   ar
     7    27    28   ar
     8    28    29   ar
     9    29    22    1
    10    22     1    1
    11     1     2   ar
    12     2     3   ar
    13     3     4   ar
    14     4     5   ar
    15     5    11    1
    16    11    12    2
    17    11    13   am
    18    13    15    1
    19    15    16   ar
    20    16    17   ar
    21    17    18   ar
    22    18    19    1
    23    18    20   ar
    24    20    21   ar
    25     5     6   ar
    26     6     7   ar
    27     7     8   ar
    28     8     9   ar
    29     9    10   ar
    30    29    30   ar
    31    30    31   ar
    32    31    32   ar
    33    32    35    1
    34    35    36    1
    35    32    23   ar
    36    30    25   ar
    37    10     1   ar
    38     9     4   ar
    39    21    15   ar
    40    13    14    1
@<TRIPOS>MOLECULE
*****
 36 40 0 0 0
SMALL
GASTEIGER

@<TRIPOS>ATOM
      1 C          63.8919   90.1968   15.4572 C.ar    1  UNL1        0.1453
      2 C          64.1423   89.2388   14.3303 C.ar    1  UNL1        0.0375
      3 C          63.9359   87.7676   14.5368 C.ar    1  UNL1        0.0033
      4 C          63.4790   87.2541   15.8700 C.ar    1  UNL1        0.0046
      5 C          63.2725   85.7828   16.0764 C.ar    1  UNL1        0.0537
      6 C          62.8156   85.2693   17.4097 C.ar    1  UNL1        0.0045
      7 C          62.5652   86.2272   18.5366 C.ar    1  UNL1        0.0001
      8 C          62.7716   87.6985   18.3301 C.ar    1  UNL1        0.0001
      9 C          63.2285   88.2120   16.9969 C.ar    1  UNL1        0.0032
     10 C          63.4350   89.6833   16.7905 C.ar    1  UNL1        0.0375
     11 C          63.5229   84.8249   14.9496 C.2     1  UNL1        0.2495
     12 O          64.9180   84.6139   14.4406 O.2     1  UNL1       -0.2698
     13 N          62.3782   84.0781   14.3317 N.am    1  UNL1       -0.2804
     14 H          61.4625   84.2166   14.6658 H       1  UNL1        0.1552
     15 C          62.6286   83.1202   13.2048 C.ar    1  UNL1        0.0506
     16 C          62.4546   81.6461   13.4209 C.ar    1  UNL1        0.0155
     17 C          62.7049   80.6882   12.2941 C.ar    1  UNL1        0.0127
     18 C          63.1293   81.2045   10.9512 C.ar    1  UNL1        0.0578
     19 CL         63.3797   80.2466    9.8243 Cl      1  UNL1       -0.0822
     20 C          63.3033   82.6786   10.7351 C.ar    1  UNL1        0.0127
     21 C          63.0529   83.6365   11.8620 C.ar    1  UNL1        0.0155
     22 O          64.0984   91.6680   15.2508 O.3     1  UNL1       -0.4534
     23 C          66.6046   92.9284   10.6269 C.ar    1  UNL1        0.1739
     24 C          67.5885   93.2101   11.7235 C.ar    1  UNL1        0.0592
     25 C          67.2079   92.9654   13.1537 C.ar    1  UNL1        0.0875
     26 N          68.1918   93.2471   14.2503 N.ar    1  UNL1       -0.2435
     27 C          67.8112   93.0025   15.6804 C.ar    1  UNL1        0.1020
     28 C          66.4467   92.4761   16.0139 C.ar    1  UNL1        0.0581
     29 C          65.4629   92.1944   14.9173 C.ar    1  UNL1        0.1483
     30 C          65.8435   92.4391   13.4872 C.ar    1  UNL1        0.0554
     31 C          64.8596   92.1574   12.3905 C.ar    1  UNL1        0.0446
     32 C          65.2402   92.4020   10.9604 C.ar    1  UNL1        0.1726
     33 C          67.5440   94.5032    8.7863 C.3     1  UNL1        0.2526
     34 O          66.9852   93.1731    9.1967 O.3     1  UNL1       -0.4683
     35 O          64.2563   92.1203    9.8636 O.3     1  UNL1       -0.4684
     36 C          63.0897   91.2124   10.1177 C.3     1  UNL1        0.2526
@<TRIPOS>BOND
     1    33    34    1
     2    34    23    1
     3    23    24   ar
     4    24    25   ar
     5    25    26   ar
     6    26    27   ar
     7    27    28   ar
     8    28    29   ar
     9    29    22    1
    10    22     1    1
    11     1     2   ar
    12     2     3   ar
    13     3     4   ar
    14     4     5   ar
    15     5    11    1
    16    11    12    2
    17    11    13   am
    18    13    15    1
    19    15    16   ar
    20    16    17   ar
    21    17    18   ar
    22    18    19    1
    23    18    20   ar
    24    20    21   ar
    25     5     6   ar
    26     6     7   ar
    27     7     8   ar
    28     8     9   ar
    29     9    10   ar
    30    29    30   ar
    31    30    31   ar
    32    31    32   ar
    33    32    35    1
    34    35    36    1
    35    32    23   ar
    36    30    25   ar
    37    10     1   ar
    38     9     4   ar
    39    21    15   ar
    40    13    14    1
@<TRIPOS>MOLECULE
*****
 36 40 0 0 0
SMALL
GASTEIGER

@<TRIPOS>ATOM
      1 C          64.1965   89.9113   14.9024 C.ar    1  UNL1        0.1453
      2 C          64.4137   88.8251   13.8909 C.ar    1  UNL1        0.0375
      3 C          64.1099   87.3994   14.2445 C.ar    1  UNL1        0.0033
      4 C          63.5888   87.0598   15.6095 C.ar    1  UNL1        0.0046
      5 C          63.2850   85.6341   15.9630 C.ar    1  UNL1        0.0537
      6 C          62.7639   85.2945   17.3280 C.ar    1  UNL1        0.0045
      7 C          62.5467   86.3807   18.3394 C.ar    1  UNL1        0.0001
      8 C          62.8505   87.8064   17.9859 C.ar    1  UNL1        0.0001
      9 C          63.3716   88.1460   16.6209 C.ar    1  UNL1        0.0032
     10 C          63.6754   89.5718   16.2674 C.ar    1  UNL1        0.0375
     11 C          63.5022   84.5479   14.9515 C.2     1  UNL1        0.2495
     12 O          64.8913   84.0647   14.6565 O.2     1  UNL1       -0.2698
     13 N          62.3304   83.9450   14.2352 N.am    1  UNL1       -0.2804
     14 H          61.4187   84.2621   14.4289 H       1  UNL1        0.1552
     15 C          62.5476   82.8588   13.2237 C.ar    1  UNL1        0.0506
     16 C          62.9955   83.2059   11.8348 C.ar    1  UNL1        0.0155
     17 C          63.2127   82.1198   10.8233 C.ar    1  UNL1        0.0127
     18 C          62.9820   80.6866   11.2007 C.ar    1  UNL1        0.0578
     19 CL         63.1992   79.6004   10.1892 Cl      1  UNL1       -0.0822
     20 C          62.5341   80.3394   12.5895 C.ar    1  UNL1        0.0127
     21 C          62.3169   81.4255   13.6010 C.ar    1  UNL1        0.0155
     22 O          64.5003   91.3370   14.5489 O.3     1  UNL1       -0.4534
     23 C          61.6458   90.2113   10.0953 C.ar    1  UNL1        0.1739
     24 C          62.7487   91.1306    9.6612 C.ar    1  UNL1        0.0592
     25 C          63.7381   91.6419   10.6661 C.ar    1  UNL1        0.0875
     26 N          64.8410   92.5612   10.2320 N.ar    1  UNL1       -0.2435
     27 C          65.8303   93.0724   11.2369 C.ar    1  UNL1        0.1020
     28 C          65.7168   92.6644   12.6758 C.ar    1  UNL1        0.0581
     29 C          64.6139   91.7451   13.1099 C.ar    1  UNL1        0.1483
     30 C          63.6246   91.2338   12.1050 C.ar    1  UNL1        0.0554
     31 C          62.5216   90.3145   12.5391 C.ar    1  UNL1        0.0446
     32 C          61.5323   89.8032   11.5342 C.ar    1  UNL1        0.1726
     33 C          60.5724   88.2305    8.8012 C.3     1  UNL1        0.2526
     34 O          60.6564   89.7000    9.0904 O.3     1  UNL1       -0.4683
     35 O          60.4293   88.8839   11.9683 O.3     1  UNL1       -0.4684
     36 C          59.0727   89.4385   12.2878 C.3     1  UNL1        0.2526
@<TRIPOS>BOND
     1    33    34    1
     2    34    23    1
     3    23    24   ar
     4    24    25   ar
     5    25    26   ar
     6    26    27   ar
     7    27    28   ar
     8    28    29   ar
     9    29    22    1
    10    22     1    1
    11     1     2   ar
    12     2     3   ar
    13     3     4   ar
    14     4     5   ar
    15     5    11    1
    16    11    12    2
    17    11    13   am
    18    13    15    1
    19    15    16   ar
    20    16    17   ar
    21    17    18   ar
    22    18    19    1
    23    18    20   ar
    24    20    21   ar
    25     5     6   ar
    26     6     7   ar
    27     7     8   ar
    28     8     9   ar
    29     9    10   ar
    30    29    30   ar
    31    30    31   ar
    32    31    32   ar
    33    32    35    1
    34    35    36    1
    35    32    23   ar
    36    30    25   ar
    37    10     1   ar
    38     9     4   ar
    39    21    15   ar
    40    13    14    1
@<TRIPOS>MOLECULE
*****
 36 40 0 0 0
SMALL
GASTEIGER

@<TRIPOS>ATOM
      1 C          63.8785   89.6345   14.8154 C.ar    1  UNL1        0.1453
      2 C          63.6672   89.3115   13.3658 C.ar    1  UNL1        0.0375
      3 C          63.5065   87.8849   12.9310 C.ar    1  UNL1        0.0033
      4 C          63.5571   86.7813   13.9456 C.ar    1  UNL1        0.0046
      5 C          63.3965   85.3547   13.5107 C.ar    1  UNL1        0.0537
      6 C          63.4471   84.2511   14.5254 C.ar    1  UNL1        0.0045
      7 C          63.6584   84.5741   15.9749 C.ar    1  UNL1        0.0001
      8 C          63.8190   86.0007   16.4098 C.ar    1  UNL1        0.0001
      9 C          63.7684   87.1043   15.3951 C.ar    1  UNL1        0.0032
     10 C          63.9291   88.5309   15.8300 C.ar    1  UNL1        0.0375
     11 C          63.1852   85.0318   12.0613 C.2     1  UNL1        0.2495
     12 O          63.7984   83.7967   11.4709 O.2     1  UNL1       -0.2698
     13 N          62.3607   85.9439   11.2022 N.am    1  UNL1       -0.2804
     14 H          61.9582   86.7546   11.5896 H       1  UNL1        0.1552
     15 C          62.1494   85.6210    9.7526 C.ar    1  UNL1        0.0506
     16 C          63.2251   84.9218    8.9754 C.ar    1  UNL1        0.0155
     17 C          63.0138   84.5989    7.5259 C.ar    1  UNL1        0.0127
     18 C          61.7268   84.9752    6.8536 C.ar    1  UNL1        0.0578
     19 CL         61.5155   84.6523    5.4041 Cl      1  UNL1       -0.0822
     20 C          60.6511   85.6744    7.6308 C.ar    1  UNL1        0.0127
     21 C          60.8624   85.9973    9.0803 C.ar    1  UNL1        0.0155
     22 O          64.0392   91.0610   15.2502 O.3     1  UNL1       -0.4534
     23 C          66.2424   93.1447   10.7720 C.ar    1  UNL1        0.1739
     24 C          67.2110   93.4264   11.8821 C.ar    1  UNL1        0.0592
     25 C          66.9024   92.9759   13.2792 C.ar    1  UNL1        0.0875
     26 N          67.8711   93.2577   14.3893 N.ar    1  UNL1       -0.2435
     27 C          67.5624   92.8072   15.7863 C.ar    1  UNL1        0.1020
     28 C          66.2851   92.0750   16.0733 C.ar    1  UNL1        0.0581
     29 C          65.3165   91.7932   14.9632 C.ar    1  UNL1        0.1483
     30 C          65.6251   92.2437   13.5662 C.ar    1  UNL1        0.0554
     31 C          64.6564   91.9619   12.4561 C.ar    1  UNL1        0.0446
     32 C          64.9651   92.4124   11.0590 C.ar    1  UNL1        0.1726
     33 C          67.7470   94.4618    9.1133 C.3     1  UNL1        0.2526
     34 O          66.5510   93.5951    9.3749 O.3     1  UNL1       -0.4683
     35 O          63.9964   92.1307    9.9489 O.3     1  UNL1       -0.4684
     36 C          62.9688   91.0494   10.1066 C.3     1  UNL1        0.2526
@<TRIPOS>BOND
     1    33    34    1
     2    34    23    1
     3    23    24   ar
     4    24    25   ar
     5    25    26   ar
     6    26    27   ar
     7    27    28   ar
     8    28    29   ar
     9    29    22    1
    10    22     1    1
    11     1     2   ar
    12     2     3   ar
    13     3     4   ar
    14     4     5   ar
    15     5    11    1
    16    11    12    2
    17    11    13   am
    18    13    15    1
    19    15    16   ar
    20    16    17   ar
    21    17    18   ar
    22    18    19    1
    23    18    20   ar
    24    20    21   ar
    25     5     6   ar
    26     6     7   ar
    27     7     8   ar
    28     8     9   ar
    29     9    10   ar
    30    29    30   ar
    31    30    31   ar
    32    31    32   ar
    33    32    35    1
    34    35    36    1
    35    32    23   ar
    36    30    25   ar
    37    10     1   ar
    38     9     4   ar
    39    21    15   ar
    40    13    14    1
@<TRIPOS>MOLECULE
*****
 36 40 0 0 0
SMALL
GASTEIGER

@<TRIPOS>ATOM
      1 C          62.6074   90.5892   10.9957 C.ar    1  UNL1        0.1453
      2 C          63.2405   89.3863   11.6300 C.ar    1  UNL1        0.0375
      3 C          62.8435   88.0090   11.1880 C.ar    1  UNL1        0.0033
      4 C          61.8134   87.8346   10.1117 C.ar    1  UNL1        0.0046
      5 C          61.4164   86.4572    9.6697 C.ar    1  UNL1        0.0537
      6 C          60.3864   86.2827    8.5933 C.ar    1  UNL1        0.0045
      7 C          59.7533   87.4856    7.9590 C.ar    1  UNL1        0.0001
      8 C          60.1503   88.8629    8.4010 C.ar    1  UNL1        0.0001
      9 C          61.1804   89.0374    9.4774 C.ar    1  UNL1        0.0032
     10 C          61.5774   90.4148    9.9194 C.ar    1  UNL1        0.0375
     11 C          62.0495   85.2544   10.3040 C.2     1  UNL1        0.2495
     12 O          62.9080   84.3381    9.4833 O.2     1  UNL1       -0.2698
     13 N          61.8241   84.9678   11.7590 N.am    1  UNL1       -0.2804
     14 H          61.2607   85.5692   12.2976 H       1  UNL1        0.1552
     15 C          62.4572   83.7650   12.3934 C.ar    1  UNL1        0.0506
     16 C          62.4159   82.4389   11.6935 C.ar    1  UNL1        0.0155
     17 C          63.0490   81.2360   12.3279 C.ar    1  UNL1        0.0127
     18 C          63.7233   81.3593   13.6620 C.ar    1  UNL1        0.0578
     19 CL         64.3564   80.1564   14.2964 Cl      1  UNL1       -0.0822
     20 C          63.7646   82.6854   14.3618 C.ar    1  UNL1        0.0127
     21 C          63.1316   83.8882   13.7275 C.ar    1  UNL1        0.0155
     22 O          63.0044   91.9665   11.4377 O.3     1  UNL1       -0.4534
     23 C          66.8053   92.2951   15.2712 C.ar    1  UNL1        0.1739
     24 C          67.4658   92.7192   13.9931 C.ar    1  UNL1        0.0592
     25 C          66.6808   92.7431   12.7151 C.ar    1  UNL1        0.0875
     26 N          67.3413   93.1672   11.4369 N.ar    1  UNL1       -0.2435
     27 C          66.5562   93.1910   10.1590 C.ar    1  UNL1        0.1020
     28 C          65.1106   92.7908   10.1593 C.ar    1  UNL1        0.0581
     29 C          64.4501   92.3667   11.4375 C.ar    1  UNL1        0.1483
     30 C          65.2351   92.3429   12.7153 C.ar    1  UNL1        0.0554
     31 C          64.5746   91.9188   13.9936 C.ar    1  UNL1        0.0446
     32 C          65.3596   91.8949   15.2715 C.ar    1  UNL1        0.1726
     33 C          69.0848   92.3947   16.5137 C.3     1  UNL1        0.2526
     34 O          67.5903   92.2712   16.5492 O.3     1  UNL1       -0.4683
     35 O          64.6991   91.4708   16.5498 O.3     1  UNL1       -0.4684
     36 C          63.5403   90.5190   16.5153 C.3     1  UNL1        0.2526
@<TRIPOS>BOND
     1    33    34    1
     2    34    23    1
     3    23    24   ar
     4    24    25   ar
     5    25    26   ar
     6    26    27   ar
     7    27    28   ar
     8    28    29   ar
     9    29    22    1
    10    22     1    1
    11     1     2   ar
    12     2     3   ar
    13     3     4   ar
    14     4     5   ar
    15     5    11    1
    16    11    12    2
    17    11    13   am
    18    13    15    1
    19    15    16   ar
    20    16    17   ar
    21    17    18   ar
    22    18    19    1
    23    18    20   ar
    24    20    21   ar
    25     5     6   ar
    26     6     7   ar
    27     7     8   ar
    28     8     9   ar
    29     9    10   ar
    30    29    30   ar
    31    30    31   ar
    32    31    32   ar
    33    32    35    1
    34    35    36    1
    35    32    23   ar
    36    30    25   ar
    37    10     1   ar
    38     9     4   ar
    39    21    15   ar
    40    13    14    1
@<TRIPOS>MOLECULE
*****
 36 40 0 0 0
SMALL
GASTEIGER

@<TRIPOS>ATOM
      1 C          63.3671   89.9890   13.0319 C.ar    1  UNL1        0.1453
      2 C          63.4913   88.6772   12.3151 C.ar    1  UNL1        0.0375
      3 C          63.5191   87.3961   13.0948 C.ar    1  UNL1        0.0033
      4 C          63.4226   87.4267   14.5913 C.ar    1  UNL1        0.0046
      5 C          63.4503   86.1455   15.3711 C.ar    1  UNL1        0.0537
      6 C          63.3538   86.1761   16.8676 C.ar    1  UNL1        0.0045
      7 C          63.2296   87.4879   17.5845 C.ar    1  UNL1        0.0001
      8 C          63.2019   88.7690   16.8048 C.ar    1  UNL1        0.0001
      9 C          63.2984   88.7384   15.3082 C.ar    1  UNL1        0.0032
     10 C          63.2707   90.0196   14.5285 C.ar    1  UNL1        0.0375
     11 C          63.5745   84.8338   14.6542 C.2     1  UNL1        0.2495
     12 O          64.9103   84.1592   14.5506 O.2     1  UNL1       -0.2698
     13 N          62.3630   84.1967   14.0409 N.am    1  UNL1       -0.2804
     14 H          61.4863   84.6395   14.1088 H       1  UNL1        0.1552
     15 C          62.4872   82.8849   13.3239 C.ar    1  UNL1        0.0506
     16 C          62.9804   82.8479   11.9078 C.ar    1  UNL1        0.0155
     17 C          63.1045   81.5362   11.1909 C.ar    1  UNL1        0.0127
     18 C          62.7355   80.2616   11.8901 C.ar    1  UNL1        0.0578
     19 CL         62.8597   78.9498   11.1732 Cl      1  UNL1       -0.0822
     20 C          62.2423   80.2985   13.3062 C.ar    1  UNL1        0.0127
     21 C          62.1181   81.6102   14.0231 C.ar    1  UNL1        0.0155
     22 O          63.3394   91.2701   12.2522 O.3     1  UNL1       -0.4534
     23 C          67.3432   93.3419   15.2401 C.ar    1  UNL1        0.1739
     24 C          67.7177   93.5948   13.8098 C.ar    1  UNL1        0.0592
     25 C          66.8104   93.1401   12.7052 C.ar    1  UNL1        0.0875
     26 N          67.1849   93.3930   11.2749 N.ar    1  UNL1       -0.2435
     27 C          66.2776   92.9383   10.1704 C.ar    1  UNL1        0.1020
     28 C          64.9958   92.2306   10.4962 C.ar    1  UNL1        0.0581
     29 C          64.6212   91.9777   11.9265 C.ar    1  UNL1        0.1483
     30 C          65.5286   92.4324   13.0310 C.ar    1  UNL1        0.0554
     31 C          65.1540   92.1795   14.4613 C.ar    1  UNL1        0.0446
     32 C          66.0613   92.6342   15.5658 C.ar    1  UNL1        0.1726
     33 C          69.6877   94.1119   16.0528 C.3     1  UNL1        0.2526
     34 O          68.2505   93.7966   16.3447 O.3     1  UNL1       -0.4683
     35 O          65.6868   92.3813   16.9962 O.3     1  UNL1       -0.4684
     36 C          64.2417   92.3104   17.3918 C.3     1  UNL1        0.2526
@<TRIPOS>BOND
     1    33    34    1
     2    34    23    1
     3    23    24   ar
     4    24    25   ar
     5    25    26   ar
     6    26    27   ar
     7    27    28   ar
     8    28    29   ar
     9    29    22    1
    10    22     1    1
    11     1     2   ar
    12     2     3   ar
    13     3     4   ar
    14     4     5   ar
    15     5    11    1
    16    11    12    2
    17    11    13   am
    18    13    15    1
    19    15    16   ar
    20    16    17   ar
    21    17    18   ar
    22    18    19    1
    23    18    20   ar
    24    20    21   ar
    25     5     6   ar
    26     6     7   ar
    27     7     8   ar
    28     8     9   ar
    29     9    10   ar
    30    29    30   ar
    31    30    31   ar
    32    31    32   ar
    33    32    35    1
    34    35    36    1
    35    32    23   ar
    36    30    25   ar
    37    10     1   ar
    38     9     4   ar
    39    21    15   ar
    40    13    14    1
@<TRIPOS>MOLECULE
*****
 36 40 0 0 0
SMALL
GASTEIGER

@<TRIPOS>ATOM
      1 C          63.6592   89.6419   14.7100 C.ar    1  UNL1        0.1453
      2 C          63.8334   88.5099   13.7413 C.ar    1  UNL1        0.0375
      3 C          63.6880   87.0925   14.2102 C.ar    1  UNL1        0.0033
      4 C          63.3684   86.8071   15.6477 C.ar    1  UNL1        0.0046
      5 C          63.2230   85.3896   16.1166 C.ar    1  UNL1        0.0537
      6 C          62.9035   85.1042   17.5541 C.ar    1  UNL1        0.0045
      7 C          62.7293   86.2363   18.5227 C.ar    1  UNL1        0.0001
      8 C          62.8747   87.6537   18.0538 C.ar    1  UNL1        0.0001
      9 C          63.1943   87.9391   16.6163 C.ar    1  UNL1        0.0032
     10 C          63.3396   89.3565   16.1475 C.ar    1  UNL1        0.0375
     11 C          63.3972   84.2577   15.1480 C.2     1  UNL1        0.2495
     12 O          64.4058   83.1823   15.4245 O.2     1  UNL1       -0.2698
     13 N          62.5628   84.2010   13.9028 N.am    1  UNL1       -0.2804
     14 H          61.9009   84.9068   13.7213 H       1  UNL1        0.1552
     15 C          62.7370   83.0690   12.9341 C.ar    1  UNL1        0.0506
     16 C          63.3272   83.3255   11.5791 C.ar    1  UNL1        0.0155
     17 C          63.5013   82.1936   10.6104 C.ar    1  UNL1        0.0127
     18 C          63.0853   80.8052   10.9967 C.ar    1  UNL1        0.0578
     19 CL         63.2594   79.6732   10.0280 Cl      1  UNL1       -0.0822
     20 C          62.4951   80.5487   12.3516 C.ar    1  UNL1        0.0127
     21 C          62.3210   81.6807   13.3203 C.ar    1  UNL1        0.0155
     22 O          63.8046   91.0593   14.2411 O.3     1  UNL1       -0.4534
     23 C          67.6817   92.5907   10.7954 C.ar    1  UNL1        0.1739
     24 C          66.4230   92.4874    9.9862 C.ar    1  UNL1        0.0592
     25 C          65.1390   92.0787   10.6452 C.ar    1  UNL1        0.0875
     26 N          63.8803   91.9754    9.8360 N.ar    1  UNL1       -0.2435
     27 C          62.5964   91.5667   10.4950 C.ar    1  UNL1        0.1020
     28 C          62.5711   91.2613   11.9634 C.ar    1  UNL1        0.0581
     29 C          63.8298   91.3646   12.7727 C.ar    1  UNL1        0.1483
     30 C          65.1137   91.7733   12.1136 C.ar    1  UNL1        0.0554
     31 C          66.3725   91.8767   12.9229 C.ar    1  UNL1        0.0446
     32 C          67.6565   92.2854   12.2638 C.ar    1  UNL1        0.1726
     33 C          69.3006   92.4900    8.7659 C.3     1  UNL1        0.2526
     34 O          68.9657   92.9995   10.1364 O.3     1  UNL1       -0.4683
     35 O          68.9152   92.3887   13.0731 O.3     1  UNL1       -0.4684
     36 C          68.8447   92.4001   14.5714 C.3     1  UNL1        0.2526
@<TRIPOS>BOND
     1    33    34    1
     2    34    23    1
     3    23    24   ar
     4    24    25   ar
     5    25    26   ar
     6    26    27   ar
     7    27    28   ar
     8    28    29   ar
     9    29    22    1
    10    22     1    1
    11     1     2   ar
    12     2     3   ar
    13     3     4   ar
    14     4     5   ar
    15     5    11    1
    16    11    12    2
    17    11    13   am
    18    13    15    1
    19    15    16   ar
    20    16    17   ar
    21    17    18   ar
    22    18    19    1
    23    18    20   ar
    24    20    21   ar
    25     5     6   ar
    26     6     7   ar
    27     7     8   ar
    28     8     9   ar
    29     9    10   ar
    30    29    30   ar
    31    30    31   ar
    32    31    32   ar
    33    32    35    1
    34    35    36    1
    35    32    23   ar
    36    30    25   ar
    37    10     1   ar
    38     9     4   ar
    39    21    15   ar
    40    13    14    1
