@<TRIPOS>MOLECULE
*****
 37 41 0 0 0
SMALL
GASTEIGER

@<TRIPOS>ATOM
      1 C          59.9818   90.2166    6.1734 C.2     1  UNL1        0.0036
      2 C          59.9860   90.8427    4.8103 C.2     1  UNL1        0.0036
      3 C          60.3761   91.7374    3.6713 C.3     1  UNL1        0.1686
      4 O          61.1051   92.7930    2.8939 O.3     1  UNL1       -0.3442
      5 C          62.0850   93.8819    2.5717 C.3     1  UNL1        0.1721
      6 C          63.1978   94.8730    2.7436 C.ar    1  UNL1        0.0425
      7 C          64.3091   95.6466    3.3890 C.ar    1  UNL1        0.0158
      8 C          65.2849   96.1095    4.4298 C.ar    1  UNL1        0.0504
      9 C          65.4233   96.8551    3.0876 C.ar    1  UNL1        0.0178
     10 C          64.7006   96.7588    1.7766 C.ar    1  UNL1        0.0379
     11 C          63.5879   95.7677    1.6047 C.ar    1  UNL1        0.1370
     12 N          66.0076   96.2058    5.7408 N.pl3   1  UNL1       -0.2825
     13 C          66.3424   95.7405    7.4654 C.ar    1  UNL1        0.2207
     14 N          67.4537   96.5141    8.1107 N.ar    1  UNL1       -0.2120
     15 C          67.8359   96.2322    9.5335 C.ar    1  UNL1        0.1034
     16 C          67.1069   95.1767   10.3110 C.ar    1  UNL1        0.0399
     17 C          65.9956   94.4031    9.6657 C.ar    1  UNL1        0.0857
     18 N          65.6134   94.6850    8.2429 N.ar    1  UNL1       -0.2135
     19 C          65.2666   93.3476   10.4431 C.ar    1  UNL1        0.0176
     20 C          65.3965   92.8149   11.8841 C.ar    1  UNL1        0.0015
     21 C          64.6675   91.7593   12.6615 C.ar    1  UNL1       -0.0002
     22 C          63.5562   90.9857   12.0161 C.ar    1  UNL1       -0.0019
     23 C          63.1739   91.2676   10.5934 C.ar    1  UNL1        0.0073
     24 C          64.2867   92.2587   10.7653 C.ar    1  UNL1       -0.0004
     25 C          62.0626   90.4940    9.9480 C.3     1  UNL1        0.1691
     26 O          61.0867   90.0310    8.9071 O.3     1  UNL1       -0.3443
     27 C          60.3641   89.9347    7.5962 C.3     1  UNL1        0.1686
     28 H          66.6681   96.9166    5.5744 H       1  UNL1        0.1551
     29 O          62.8652   95.6714    0.2937 O.3     1  UNL1       -0.4742
     30 C          63.5839   95.1702   -0.9238 C.3     1  UNL1        0.2226
     31 C          63.1967   93.8564   -1.5355 C.3     1  UNL1        0.1200
     32 N          61.7485   93.4884   -1.6672 N.3     1  UNL1       -0.2696
     33 C          60.9835   93.8822   -2.8958 C.3     1  UNL1        0.0722
     34 C          59.5352   93.5142   -3.0276 C.3     1  UNL1        0.0174
     35 C          58.8523   92.7523   -1.9308 C.3     1  UNL1        0.0029
     36 C          59.6173   92.3585   -0.7022 C.3     1  UNL1        0.0174
     37 C          61.0656   92.7265   -0.5704 C.3     1  UNL1        0.0722
@<TRIPOS>BOND
     1     1     2    2
     2     2     3    1
     3     3     4    1
     4     4     5    1
     5     5     6    1
     6     6     7   ar
     7     7     8   ar
     8     8     9   ar
     9     9    10   ar
    10    10    11   ar
    11    11    29    1
    12    29    30    1
    13    30    31    1
    14    31    32    1
    15    32    33    1
    16    33    34    1
    17    34    35    1
    18    35    36    1
    19    36    37    1
    20     8    12    1
    21    12    13    1
    22    13    14   ar
    23    14    15   ar
    24    15    16   ar
    25    16    17   ar
    26    17    18   ar
    27    17    19    1
    28    19    20   ar
    29    20    21   ar
    30    21    22   ar
    31    22    23   ar
    32    23    24   ar
    33    23    25    1
    34    25    26    1
    35    26    27    1
    36    27     1    1
    37    11     6   ar
    38    37    32    1
    39    18    13   ar
    40    24    19   ar
    41    12    28    1
@<TRIPOS>MOLECULE
*****
 37 41 0 0 0
SMALL
GASTEIGER

@<TRIPOS>ATOM
      1 C          60.1315   89.9800    6.8900 C.2     1  UNL1        0.0036
      2 C          59.9806   90.4430    5.4712 C.2     1  UNL1        0.0036
      3 C          60.2220   91.2122    4.2063 C.3     1  UNL1        0.1686
      4 O          60.8267   92.1948    3.2477 O.3     1  UNL1       -0.3442
      5 C          61.7217   93.2723    2.7112 C.3     1  UNL1        0.1721
      6 C          62.7991   94.3148    2.6614 C.ar    1  UNL1        0.0425
      7 C          63.9289   95.1965    3.1043 C.ar    1  UNL1        0.0158
      8 C          64.9748   95.8110    3.9864 C.ar    1  UNL1        0.0504
      9 C          64.9539   96.3998    2.5618 C.ar    1  UNL1        0.0178
     10 C          64.1179   96.1265    1.3466 C.ar    1  UNL1        0.0379
     11 C          63.0405   95.0840    1.3965 C.ar    1  UNL1        0.1370
     12 N          65.8109   96.0843    5.2016 N.pl3   1  UNL1       -0.2825
     13 C          66.3251   95.8348    6.9267 C.ar    1  UNL1        0.2207
     14 N          67.4549   96.7164    7.3696 N.ar    1  UNL1       -0.2120
     15 C          67.9800   96.6155    8.7710 C.ar    1  UNL1        0.1034
     16 C          67.3753   95.6328    9.7296 C.ar    1  UNL1        0.0399
     17 C          66.2455   94.7512    9.2867 C.ar    1  UNL1        0.0857
     18 N          65.7204   94.8521    7.8853 N.ar    1  UNL1       -0.2135
     19 C          65.6408   93.7685   10.2453 C.ar    1  UNL1        0.0176
     20 C          65.9281   93.4119   11.7174 C.ar    1  UNL1        0.0015
     21 C          65.3234   92.4293   12.6760 C.ar    1  UNL1       -0.0002
     22 C          64.1935   91.5476   12.2330 C.ar    1  UNL1       -0.0019
     23 C          63.6684   91.6486   10.8316 C.ar    1  UNL1        0.0073
     24 C          64.7458   92.6910   10.7818 C.ar    1  UNL1       -0.0004
     25 C          62.5386   90.7669   10.3887 C.3     1  UNL1        0.1691
     26 O          61.4926   90.1523    9.5065 O.3     1  UNL1       -0.3443
     27 C          60.6566   89.8791    8.2914 C.3     1  UNL1        0.1686
     28 H          66.4198   96.7935    4.8927 H       1  UNL1        0.1551
     29 O          62.2045   94.8107    0.1813 O.3     1  UNL1       -0.4742
     30 C          61.0525   95.7109   -0.1544 C.3     1  UNL1        0.2226
     31 C          59.7267   95.5150    0.5193 C.3     1  UNL1        0.1200
     32 N          58.6253   94.7848   -0.1907 N.3     1  UNL1       -0.2696
     33 C          58.5686   93.2866   -0.1461 C.3     1  UNL1        0.0722
     34 C          57.4673   92.5563   -0.8561 C.3     1  UNL1        0.0174
     35 C          56.4229   93.3244   -1.6104 C.3     1  UNL1        0.0029
     36 C          56.4796   94.8226   -1.6550 C.3     1  UNL1        0.0174
     37 C          57.5809   95.5529   -0.9450 C.3     1  UNL1        0.0722
@<TRIPOS>BOND
     1     1     2    2
     2     2     3    1
     3     3     4    1
     4     4     5    1
     5     5     6    1
     6     6     7   ar
     7     7     8   ar
     8     8     9   ar
     9     9    10   ar
    10    10    11   ar
    11    11    29    1
    12    29    30    1
    13    30    31    1
    14    31    32    1
    15    32    33    1
    16    33    34    1
    17    34    35    1
    18    35    36    1
    19    36    37    1
    20     8    12    1
    21    12    13    1
    22    13    14   ar
    23    14    15   ar
    24    15    16   ar
    25    16    17   ar
    26    17    18   ar
    27    17    19    1
    28    19    20   ar
    29    20    21   ar
    30    21    22   ar
    31    22    23   ar
    32    23    24   ar
    33    23    25    1
    34    25    26    1
    35    26    27    1
    36    27     1    1
    37    11     6   ar
    38    37    32    1
    39    18    13   ar
    40    24    19   ar
    41    12    28    1
@<TRIPOS>MOLECULE
*****
 37 41 0 0 0
SMALL
GASTEIGER

@<TRIPOS>ATOM
      1 C          60.1328   90.0293    6.5402 C.2     1  UNL1        0.0036
      2 C          60.0730   90.5702    5.1424 C.2     1  UNL1        0.0036
      3 C          60.3972   91.4047    3.9389 C.3     1  UNL1        0.1686
      4 O          61.0662   92.4323    3.0749 O.3     1  UNL1       -0.3442
      5 C          61.9993   93.5289    2.6545 C.3     1  UNL1        0.1721
      6 C          63.0840   94.5624    2.7286 C.ar    1  UNL1        0.0425
      7 C          64.1894   95.4080    3.2880 C.ar    1  UNL1        0.0158
      8 C          65.1822   95.9638    4.2655 C.ar    1  UNL1        0.0504
      9 C          65.2533   96.6293    2.8767 C.ar    1  UNL1        0.0178
     10 C          64.4928   96.4304    1.5991 C.ar    1  UNL1        0.0379
     11 C          63.4082   95.3969    1.5251 C.ar    1  UNL1        0.1370
     12 N          65.9427   96.1627    5.5431 N.pl3   1  UNL1       -0.2825
     13 C          66.3472   95.8148    7.2804 C.ar    1  UNL1        0.2207
     14 N          67.4526   96.6604    7.8399 N.ar    1  UNL1       -0.2120
     15 C          67.8890   96.4784    9.2634 C.ar    1  UNL1        0.1034
     16 C          67.2200   95.4508   10.1274 C.ar    1  UNL1        0.0399
     17 C          66.1146   94.6052    9.5679 C.ar    1  UNL1        0.0857
     18 N          65.6782   94.7872    8.1444 N.ar    1  UNL1       -0.2135
     19 C          65.4456   93.5777   10.4320 C.ar    1  UNL1        0.0176
     20 C          65.6386   93.1388   11.8973 C.ar    1  UNL1        0.0015
     21 C          64.9697   92.1112   12.7613 C.ar    1  UNL1       -0.0002
     22 C          63.8642   91.2656   12.2018 C.ar    1  UNL1       -0.0019
     23 C          63.4278   91.4476   10.7783 C.ar    1  UNL1        0.0073
     24 C          64.5125   92.4811   10.8523 C.ar    1  UNL1       -0.0004
     25 C          62.3225   90.6020   10.2188 C.3     1  UNL1        0.1691
     26 O          61.3296   90.0462    9.2413 O.3     1  UNL1       -0.3443
     27 C          60.5691   89.8473    7.9637 C.3     1  UNL1        0.1686
     28 H          66.5740   96.8818    5.3118 H       1  UNL1        0.1551
     29 O          62.6477   95.1980    0.2475 O.3     1  UNL1       -0.4742
     30 C          63.2934   94.4915   -0.9075 C.3     1  UNL1        0.2226
     31 C          63.7589   95.2738   -2.0997 C.3     1  UNL1        0.1200
     32 N          64.1597   94.5587   -3.3559 N.3     1  UNL1       -0.2696
     33 C          63.8666   93.0960   -3.5122 C.3     1  UNL1        0.0722
     34 C          64.2674   92.3808   -4.7685 C.3     1  UNL1        0.0174
     35 C          64.9611   93.1285   -5.8683 C.3     1  UNL1        0.0029
     36 C          65.2542   94.5912   -5.7120 C.3     1  UNL1        0.0174
     37 C          64.8534   95.3064   -4.4557 C.3     1  UNL1        0.0722
@<TRIPOS>BOND
     1     1     2    2
     2     2     3    1
     3     3     4    1
     4     4     5    1
     5     5     6    1
     6     6     7   ar
     7     7     8   ar
     8     8     9   ar
     9     9    10   ar
    10    10    11   ar
    11    11    29    1
    12    29    30    1
    13    30    31    1
    14    31    32    1
    15    32    33    1
    16    33    34    1
    17    34    35    1
    18    35    36    1
    19    36    37    1
    20     8    12    1
    21    12    13    1
    22    13    14   ar
    23    14    15   ar
    24    15    16   ar
    25    16    17   ar
    26    17    18   ar
    27    17    19    1
    28    19    20   ar
    29    20    21   ar
    30    21    22   ar
    31    22    23   ar
    32    23    24   ar
    33    23    25    1
    34    25    26    1
    35    26    27    1
    36    27     1    1
    37    11     6   ar
    38    37    32    1
    39    18    13   ar
    40    24    19   ar
    41    12    28    1
@<TRIPOS>MOLECULE
*****
 37 41 0 0 0
SMALL
GASTEIGER

@<TRIPOS>ATOM
      1 C          60.1042   90.9031    4.5575 C.2     1  UNL1        0.0036
      2 C          59.9823   90.1692    5.8601 C.2     1  UNL1        0.0036
      3 C          60.2534   89.7579    7.2769 C.3     1  UNL1        0.1686
      4 O          60.8846   89.7186    8.6370 O.3     1  UNL1       -0.3442
      5 C          61.7998   90.0562    9.7765 C.3     1  UNL1        0.1721
      6 C          62.8888   90.7298   10.5578 C.ar    1  UNL1        0.0425
      7 C          64.0201   91.6582   10.8867 C.ar    1  UNL1        0.0158
      8 C          65.0572   92.7296   10.7236 C.ar    1  UNL1        0.0504
      9 C          65.0667   92.0771   12.1203 C.ar    1  UNL1        0.0178
     10 C          64.2488   90.9920   12.7559 C.ar    1  UNL1        0.0379
     11 C          63.1599   90.3185   11.9745 C.ar    1  UNL1        0.1370
     12 N          65.8751   93.8146   10.0881 N.pl3   1  UNL1       -0.2825
     13 C          66.3572   94.9205    8.7288 C.ar    1  UNL1        0.2207
     14 N          67.4884   95.8489    9.0578 N.ar    1  UNL1       -0.2120
     15 C          67.9884   96.8166    8.0266 C.ar    1  UNL1        0.1034
     16 C          67.3572   96.8559    6.6664 C.ar    1  UNL1        0.0399
     17 C          66.2259   95.9275    6.3375 C.ar    1  UNL1        0.0857
     18 N          65.7259   94.9597    7.3687 N.ar    1  UNL1       -0.2135
     19 C          65.5947   95.9667    4.9773 C.ar    1  UNL1        0.0176
     20 C          65.8530   96.8126    3.7144 C.ar    1  UNL1        0.0015
     21 C          65.2218   96.8518    2.3543 C.ar    1  UNL1       -0.0002
     22 C          64.0905   95.9233    2.0254 C.ar    1  UNL1       -0.0019
     23 C          63.5905   94.9556    3.0566 C.ar    1  UNL1        0.0073
     24 C          64.6795   95.6292    3.8379 C.ar    1  UNL1       -0.0004
     25 C          62.4593   94.0271    2.7276 C.3     1  UNL1        0.1691
     26 O          61.4221   92.9557    2.8908 O.3     1  UNL1       -0.3443
     27 C          60.6042   91.8708    3.5263 C.3     1  UNL1        0.1686
     28 H          66.4967   94.0694   10.8078 H       1  UNL1        0.1551
     29 O          62.3419   89.2334   12.6101 O.3     1  UNL1       -0.4742
     30 C          62.5559   87.8028   12.2132 C.3     1  UNL1        0.2226
     31 C          63.5201   86.9478   12.9808 C.3     1  UNL1        0.1200
     32 N          63.2734   85.4742   13.1148 N.3     1  UNL1       -0.2696
     33 C          62.9358   84.6572   11.9030 C.3     1  UNL1        0.0722
     34 C          62.6891   83.1836   12.0369 C.3     1  UNL1        0.0174
     35 C          62.7800   82.5273   13.3825 C.3     1  UNL1        0.0029
     36 C          63.1175   83.3443   14.5943 C.3     1  UNL1        0.0174
     37 C          63.3643   84.8179   14.4605 C.3     1  UNL1        0.0722
@<TRIPOS>BOND
     1     1     2    2
     2     2     3    1
     3     3     4    1
     4     4     5    1
     5     5     6    1
     6     6     7   ar
     7     7     8   ar
     8     8     9   ar
     9     9    10   ar
    10    10    11   ar
    11    11    29    1
    12    29    30    1
    13    30    31    1
    14    31    32    1
    15    32    33    1
    16    33    34    1
    17    34    35    1
    18    35    36    1
    19    36    37    1
    20     8    12    1
    21    12    13    1
    22    13    14   ar
    23    14    15   ar
    24    15    16   ar
    25    16    17   ar
    26    17    18   ar
    27    17    19    1
    28    19    20   ar
    29    20    21   ar
    30    21    22   ar
    31    22    23   ar
    32    23    24   ar
    33    23    25    1
    34    25    26    1
    35    26    27    1
    36    27     1    1
    37    11     6   ar
    38    37    32    1
    39    18    13   ar
    40    24    19   ar
    41    12    28    1
@<TRIPOS>MOLECULE
*****
 37 41 0 0 0
SMALL
GASTEIGER

@<TRIPOS>ATOM
      1 C          60.4438   89.9964    8.2687 C.2     1  UNL1        0.0036
      2 C          61.4062   90.2358    9.3941 C.2     1  UNL1        0.0036
      3 C          62.5627   90.8021   10.1634 C.3     1  UNL1        0.1686
      4 O          63.7738   91.6270   10.4838 O.3     1  UNL1       -0.3442
      5 C          64.8936   92.6109   10.3166 C.3     1  UNL1        0.1721
      6 C          65.7869   93.6352    9.6820 C.ar    1  UNL1        0.0425
      7 C          66.3460   94.5764    8.6566 C.ar    1  UNL1        0.0158
      8 C          66.5035   95.3210    7.3640 C.ar    1  UNL1        0.0504
      9 C          67.5735   95.6839    8.4128 C.ar    1  UNL1        0.0178
     10 C          67.8368   95.2258    9.8168 C.ar    1  UNL1        0.0379
     11 C          66.9434   94.2015   10.4513 C.ar    1  UNL1        0.1370
     12 N          66.2403   95.7791    5.9601 N.pl3   1  UNL1       -0.2825
     13 C          65.3327   95.7983    4.3857 C.ar    1  UNL1        0.2207
     14 N          65.8918   96.7395    3.3603 N.ar    1  UNL1       -0.2120
     15 C          65.2397   96.8558    2.0145 C.ar    1  UNL1        0.1034
     16 C          64.0285   96.0310    1.6941 C.ar    1  UNL1        0.0399
     17 C          63.4694   95.0898    2.7195 C.ar    1  UNL1        0.0857
     18 N          64.1215   94.9734    4.0653 N.ar    1  UNL1       -0.2135
     19 C          62.2582   94.2649    2.3991 C.ar    1  UNL1        0.0176
     20 C          61.3633   94.1391    1.1500 C.ar    1  UNL1        0.0015
     21 C          60.1521   93.3142    0.8296 C.ar    1  UNL1       -0.0002
     22 C          59.5930   92.3730    1.8551 C.ar    1  UNL1       -0.0019
     23 C          60.2451   92.2566    3.2009 C.ar    1  UNL1        0.0073
     24 C          61.1384   93.2810    2.5663 C.ar    1  UNL1       -0.0004
     25 C          59.6860   91.3154    4.2263 C.3     1  UNL1        0.1691
     26 O          59.5285   90.5708    5.5190 O.3     1  UNL1       -0.3443
     27 C          59.7917   90.1128    6.9229 C.3     1  UNL1        0.1686
     28 H          66.9594   96.4335    5.8055 H       1  UNL1        0.1551
     29 O          67.2066   93.7434   11.8553 O.3     1  UNL1       -0.4742
     30 C          66.1499   93.9052   12.9075 C.3     1  UNL1        0.2226
     31 C          66.3131   93.2413   14.2426 C.3     1  UNL1        0.1200
     32 N          65.4009   92.1182   14.6382 N.3     1  UNL1       -0.2696
     33 C          64.8002   92.0885   16.0123 C.3     1  UNL1        0.0722
     34 C          63.8878   90.9654   16.4080 C.3     1  UNL1        0.0174
     35 C          63.5764   89.8721   15.4295 C.3     1  UNL1        0.0029
     36 C          64.1770   89.9017   14.0554 C.3     1  UNL1        0.0174
     37 C          65.0894   91.0248   13.6597 C.3     1  UNL1        0.0722
@<TRIPOS>BOND
     1     1     2    2
     2     2     3    1
     3     3     4    1
     4     4     5    1
     5     5     6    1
     6     6     7   ar
     7     7     8   ar
     8     8     9   ar
     9     9    10   ar
    10    10    11   ar
    11    11    29    1
    12    29    30    1
    13    30    31    1
    14    31    32    1
    15    32    33    1
    16    33    34    1
    17    34    35    1
    18    35    36    1
    19    36    37    1
    20     8    12    1
    21    12    13    1
    22    13    14   ar
    23    14    15   ar
    24    15    16   ar
    25    16    17   ar
    26    17    18   ar
    27    17    19    1
    28    19    20   ar
    29    20    21   ar
    30    21    22   ar
    31    22    23   ar
    32    23    24   ar
    33    23    25    1
    34    25    26    1
    35    26    27    1
    36    27     1    1
    37    11     6   ar
    38    37    32    1
    39    18    13   ar
    40    24    19   ar
    41    12    28    1
