@<TRIPOS>MOLECULE
*****
 13 13 0 0 0
SMALL
GASTEIGER

@<TRIPOS>ATOM
      1 C          63.2687   90.2399   16.3805 C.3     1  UNL1        0.0310
      2 C          63.5001   88.7772   16.1418 C.ar    1  UNL1       -0.0218
      3 C          62.9849   87.7664   17.1231 C.ar    1  UNL1       -0.0030
      4 C          63.2163   86.3037   16.8844 C.ar    1  UNL1        0.0143
      5 C          63.9629   85.8518   15.6645 C.ar    1  UNL1        0.0495
      6 C          64.4782   86.8625   14.6833 C.ar    1  UNL1        0.0143
      7 C          64.2468   88.3252   14.9219 C.ar    1  UNL1       -0.0030
      8 N          64.1943   84.3891   15.4258 N.pl3   1  UNL1       -0.2930
      9 H          65.1099   84.0497   15.2999 H       1  UNL1        0.1538
     10 C          63.0309   83.4435   15.3791 C.2     1  UNL1        0.2056
     11 N          63.1782   82.1052   14.7180 N.2     1  UNL1       -0.0679
     12 O          62.0147   81.1596   14.6712 O.2     1  UNL1       -0.4077
     13 H          62.1067   80.3235   14.2583 H       1  UNL1        0.3278
@<TRIPOS>BOND
     1     1     2    1
     2     2     3   ar
     3     3     4   ar
     4     4     5   ar
     5     5     8    1
     6     8    10    1
     7    10    11    2
     8    11    12    1
     9     5     6   ar
    10     6     7   ar
    11     7     2   ar
    12     8     9    1
    13    12    13    1
@<TRIPOS>MOLECULE
*****
 13 13 0 0 0
SMALL
GASTEIGER

@<TRIPOS>ATOM
      1 C          62.9779   85.1627    8.2137 C.3     1  UNL1        0.0310
      2 C          63.0542   84.7681    9.6588 C.ar    1  UNL1       -0.0218
      3 C          63.8494   83.5633   10.0663 C.ar    1  UNL1       -0.0030
      4 C          63.9257   83.1686   11.5114 C.ar    1  UNL1        0.0143
      5 C          63.2067   83.9787   12.5491 C.ar    1  UNL1        0.0495
      6 C          62.4114   85.1835   12.1416 C.ar    1  UNL1        0.0143
      7 C          62.3352   85.5781   10.6964 C.ar    1  UNL1       -0.0030
      8 N          63.2829   83.5840   13.9942 N.pl3   1  UNL1       -0.2930
      9 H          64.0020   82.9873   14.3042 H       1  UNL1        0.1538
     10 C          62.2636   84.0985   14.9669 C.2     1  UNL1        0.2056
     11 N          62.6046   85.2418   15.8761 N.2     1  UNL1       -0.0679
     12 O          61.5852   85.7562   16.8489 O.2     1  UNL1       -0.4077
     13 H          61.7981   86.4704   17.4169 H       1  UNL1        0.3278
@<TRIPOS>BOND
     1     1     2    1
     2     2     3   ar
     3     3     4   ar
     4     4     5   ar
     5     5     8    1
     6     8    10    1
     7    10    11    2
     8    11    12    1
     9     5     6   ar
    10     6     7   ar
    11     7     2   ar
    12     8     9    1
    13    12    13    1
@<TRIPOS>MOLECULE
*****
 13 13 0 0 0
SMALL
GASTEIGER

@<TRIPOS>ATOM
      1 C          64.2314   82.5060   10.4740 C.3     1  UNL1        0.0310
      2 C          63.5155   83.8044   10.2468 C.ar    1  UNL1       -0.0218
      3 C          62.8089   84.4803   11.3842 C.ar    1  UNL1       -0.0030
      4 C          62.0930   85.7787   11.1570 C.ar    1  UNL1        0.0143
      5 C          62.0838   86.4013    9.7923 C.ar    1  UNL1        0.0495
      6 C          62.7905   85.7254    8.6549 C.ar    1  UNL1        0.0143
      7 C          63.5063   84.4270    8.8821 C.ar    1  UNL1       -0.0030
      8 N          61.3680   87.6997    9.5651 N.pl3   1  UNL1       -0.2930
      9 H          61.8019   88.5498    9.8065 H       1  UNL1        0.1538
     10 C          59.9911   87.7029    8.9702 C.2     1  UNL1        0.2056
     11 N          59.5128   86.5211    8.1798 N.2     1  UNL1       -0.0679
     12 O          58.1358   86.5244    7.5848 O.2     1  UNL1       -0.4077
     13 H          57.8370   85.7862    7.0911 H       1  UNL1        0.3278
@<TRIPOS>BOND
     1     1     2    1
     2     2     3   ar
     3     3     4   ar
     4     4     5   ar
     5     5     8    1
     6     8    10    1
     7    10    11    2
     8    11    12    1
     9     5     6   ar
    10     6     7   ar
    11     7     2   ar
    12     8     9    1
    13    12    13    1
@<TRIPOS>MOLECULE
*****
 13 13 0 0 0
SMALL
GASTEIGER

@<TRIPOS>ATOM
      1 C          63.0888   85.2777    8.2464 C.3     1  UNL1        0.0310
      2 C          63.1628   84.6632    9.6127 C.ar    1  UNL1       -0.0218
      3 C          63.9803   83.4253    9.8351 C.ar    1  UNL1       -0.0030
      4 C          64.0543   82.8109   11.2014 C.ar    1  UNL1        0.0143
      5 C          63.3110   83.4342   12.3454 C.ar    1  UNL1        0.0495
      6 C          62.4935   84.6721   12.1231 C.ar    1  UNL1        0.0143
      7 C          62.4195   85.2866   10.7567 C.ar    1  UNL1       -0.0030
      8 N          63.3850   82.8197   13.7118 N.pl3   1  UNL1       -0.2930
      9 H          64.2478   82.7709   14.1834 H       1  UNL1        0.1538
     10 C          62.1446   82.2796   14.3595 C.2     1  UNL1        0.2056
     11 N          61.4121   81.1294   13.7345 N.2     1  UNL1       -0.0679
     12 O          60.1716   80.5893   14.3823 O.2     1  UNL1       -0.4077
     13 H          59.7141   79.8709   13.9919 H       1  UNL1        0.3278
@<TRIPOS>BOND
     1     1     2    1
     2     2     3   ar
     3     3     4   ar
     4     4     5   ar
     5     5     8    1
     6     8    10    1
     7    10    11    2
     8    11    12    1
     9     5     6   ar
    10     6     7   ar
    11     7     2   ar
    12     8     9    1
    13    12    13    1
@<TRIPOS>MOLECULE
*****
 13 13 0 0 0
SMALL
GASTEIGER

@<TRIPOS>ATOM
      1 C          62.2239   84.4315    5.8392 C.3     1  UNL1        0.0310
      2 C          61.8757   85.0568    7.1575 C.ar    1  UNL1       -0.0218
      3 C          62.8671   85.0353    8.2829 C.ar    1  UNL1       -0.0030
      4 C          62.5190   85.6605    9.6012 C.ar    1  UNL1        0.0143
      5 C          61.1795   86.3073    9.7940 C.ar    1  UNL1        0.0495
      6 C          60.1881   86.3288    8.6686 C.ar    1  UNL1        0.0143
      7 C          60.5362   85.7036    7.3503 C.ar    1  UNL1       -0.0030
      8 N          60.8313   86.9326   11.1123 N.pl3   1  UNL1       -0.2930
      9 H          61.1325   86.5135   11.9507 H       1  UNL1        0.1538
     10 C          60.0243   88.1963   11.1532 C.2     1  UNL1        0.2056
     11 N          60.5358   89.3888   11.9056 N.2     1  UNL1       -0.0679
     12 O          59.7287   90.6526   11.9465 O.2     1  UNL1       -0.4077
     13 H          60.0482   91.3976   12.4165 H       1  UNL1        0.3278
@<TRIPOS>BOND
     1     1     2    1
     2     2     3   ar
     3     3     4   ar
     4     4     5   ar
     5     5     8    1
     6     8    10    1
     7    10    11    2
     8    11    12    1
     9     5     6   ar
    10     6     7   ar
    11     7     2   ar
    12     8     9    1
    13    12    13    1
@<TRIPOS>MOLECULE
*****
 13 13 0 0 0
SMALL
GASTEIGER

@<TRIPOS>ATOM
      1 C          64.2246   82.6266   10.4093 C.3     1  UNL1        0.0310
      2 C          63.4123   83.8765   10.2419 C.ar    1  UNL1       -0.0218
      3 C          62.6503   84.4374   11.4058 C.ar    1  UNL1       -0.0030
      4 C          61.8381   85.6873   11.2383 C.ar    1  UNL1        0.0143
      5 C          61.7879   86.3763    9.9070 C.ar    1  UNL1        0.0495
      6 C          62.5499   85.8155    8.7430 C.ar    1  UNL1        0.0143
      7 C          63.3621   84.5656    8.9105 C.ar    1  UNL1       -0.0030
      8 N          60.9757   87.6262    9.7395 N.pl3   1  UNL1       -0.2930
      9 H          60.9493   88.0831    8.8678 H       1  UNL1        0.1538
     10 C          60.2037   88.1801   10.9002 C.2     1  UNL1        0.2056
     11 N          60.8466   89.1716   11.8240 N.2     1  UNL1       -0.0679
     12 O          60.0745   89.7255   12.9847 O.2     1  UNL1       -0.4077
     13 H          60.4762   90.3449   13.5618 H       1  UNL1        0.3278
@<TRIPOS>BOND
     1     1     2    1
     2     2     3   ar
     3     3     4   ar
     4     4     5   ar
     5     5     8    1
     6     8    10    1
     7    10    11    2
     8    11    12    1
     9     5     6   ar
    10     6     7   ar
    11     7     2   ar
    12     8     9    1
    13    12    13    1
@<TRIPOS>MOLECULE
*****
 13 13 0 0 0
SMALL
GASTEIGER

@<TRIPOS>ATOM
      1 C          63.0956   81.1727   10.5445 C.3     1  UNL1        0.0310
      2 C          63.3903   81.9436   11.7970 C.ar    1  UNL1       -0.0218
      3 C          64.3615   83.0862   11.7634 C.ar    1  UNL1       -0.0030
      4 C          64.6562   83.8571   13.0160 C.ar    1  UNL1        0.0143
      5 C          63.9799   83.4853   14.3021 C.ar    1  UNL1        0.0495
      6 C          63.0087   82.3426   14.3357 C.ar    1  UNL1        0.0143
      7 C          62.7140   81.5718   13.0832 C.ar    1  UNL1       -0.0030
      8 N          64.2747   84.2561   15.5547 N.pl3   1  UNL1       -0.2930
      9 H          65.0276   83.9903   16.1305 H       1  UNL1        0.1538
     10 C          63.4222   85.4319   15.9299 C.2     1  UNL1        0.2056
     11 N          62.1259   85.2179   16.6537 N.2     1  UNL1       -0.0679
     12 O          61.2734   86.3937   17.0289 O.2     1  UNL1       -0.4077
     13 H          60.4637   86.2601   17.4810 H       1  UNL1        0.3278
@<TRIPOS>BOND
     1     1     2    1
     2     2     3   ar
     3     3     4   ar
     4     4     5   ar
     5     5     8    1
     6     8    10    1
     7    10    11    2
     8    11    12    1
     9     5     6   ar
    10     6     7   ar
    11     7     2   ar
    12     8     9    1
    13    12    13    1
@<TRIPOS>MOLECULE
*****
 13 13 0 0 0
SMALL
GASTEIGER

@<TRIPOS>ATOM
      1 C          64.2605   83.2475   10.0890 C.3     1  UNL1        0.0310
      2 C          63.2729   84.3762   10.0656 C.ar    1  UNL1       -0.0218
      3 C          62.5638   84.7785   11.3246 C.ar    1  UNL1       -0.0030
      4 C          61.5761   85.9073   11.3011 C.ar    1  UNL1        0.0143
      5 C          61.2977   86.6337   10.0187 C.ar    1  UNL1        0.0495
      6 C          62.0068   86.2313    8.7597 C.ar    1  UNL1        0.0143
      7 C          62.9945   85.1026    8.7831 C.ar    1  UNL1       -0.0030
      8 N          60.3100   87.7624    9.9952 N.pl3   1  UNL1       -0.2930
      9 H          59.5848   87.7958   10.6602 H       1  UNL1        0.1538
     10 C          60.4273   88.8402    8.9586 C.2     1  UNL1        0.2056
     11 N          59.5840   88.7839    7.7194 N.2     1  UNL1       -0.0679
     12 O          59.7014   89.8618    6.6828 O.2     1  UNL1       -0.4077
     13 H          59.1746   89.8267    5.9087 H       1  UNL1        0.3278
@<TRIPOS>BOND
     1     1     2    1
     2     2     3   ar
     3     3     4   ar
     4     4     5   ar
     5     5     8    1
     6     8    10    1
     7    10    11    2
     8    11    12    1
     9     5     6   ar
    10     6     7   ar
    11     7     2   ar
    12     8     9    1
    13    12    13    1
@<TRIPOS>MOLECULE
*****
 13 13 0 0 0
SMALL
GASTEIGER

@<TRIPOS>ATOM
      1 C          62.9320   85.1955    7.9607 C.3     1  UNL1        0.0310
      2 C          62.9962   84.8004    9.4063 C.ar    1  UNL1       -0.0218
      3 C          63.7671   83.5810    9.8170 C.ar    1  UNL1       -0.0030
      4 C          63.8313   83.1858   11.2626 C.ar    1  UNL1        0.0143
      5 C          63.1246   84.0101   12.2975 C.ar    1  UNL1        0.0495
      6 C          62.3537   85.2295   11.8868 C.ar    1  UNL1        0.0143
      7 C          62.2895   85.6247   10.4412 C.ar    1  UNL1       -0.0030
      8 N          63.1888   83.6150   13.7431 N.pl3   1  UNL1       -0.2930
      9 H          62.4132   83.1850   14.1707 H       1  UNL1        0.1538
     10 C          64.4345   83.8749   14.5370 C.2     1  UNL1        0.2056
     11 N          65.5508   84.6791   13.9393 N.2     1  UNL1       -0.0679
     12 O          66.7966   84.9390   14.7333 O.2     1  UNL1       -0.4077
     13 H          67.4939   85.4414   14.3599 H       1  UNL1        0.3278
@<TRIPOS>BOND
     1     1     2    1
     2     2     3   ar
     3     3     4   ar
     4     4     5   ar
     5     5     8    1
     6     8    10    1
     7    10    11    2
     8    11    12    1
     9     5     6   ar
    10     6     7   ar
    11     7     2   ar
    12     8     9    1
    13    12    13    1
