@<TRIPOS>MOLECULE
*****
 15 15 0 0 0
SMALL
GASTEIGER

@<TRIPOS>ATOM
      1 C          64.9141   90.7589   13.9027 C.ar    1  UNL1        0.0369
      2 C          66.1787   91.3574   14.4434 C.ar    1  UNL1        0.0430
      3 C          66.8604   92.4679   13.7005 C.ar    1  UNL1        0.1726
      4 C          66.2776   92.9800   12.4168 C.ar    1  UNL1        0.1754
      5 C          65.0129   92.3815   11.8760 C.ar    1  UNL1        0.0769
      6 C          64.3312   91.2709   12.6189 C.ar    1  UNL1        0.1419
      7 C          62.9361   88.8003   16.7313 C.3     1  UNL1        0.0307
      8 C          63.6178   89.9109   15.9884 C.2     1  UNL1       -0.0257
      9 C          64.2324   89.6483   14.6456 C.2     1  UNL1       -0.0015
     10 O          68.1251   93.0664   14.2414 O.3     1  UNL1       -0.4684
     11 C          68.1932   93.5083   15.6732 C.3     1  UNL1        0.2526
     12 O          66.9593   94.0905   11.6739 O.3     1  UNL1       -0.4683
     13 C          66.1893   95.3191   11.2897 C.3     1  UNL1        0.2526
     14 O          63.0666   90.6724   12.0781 O.3     1  UNL1       -0.4713
     15 C          62.7597   90.7653   10.6128 C.3     1  UNL1        0.2525
@<TRIPOS>BOND
     1     7     8    1
     2     8     9    2
     3     9     1    1
     4     1     2   ar
     5     2     3   ar
     6     3    10    1
     7    10    11    1
     8     3     4   ar
     9     4    12    1
    10    12    13    1
    11     4     5   ar
    12     5     6   ar
    13     6    14    1
    14    14    15    1
    15     6     1   ar
@<TRIPOS>MOLECULE
*****
 15 15 0 0 0
SMALL
GASTEIGER

@<TRIPOS>ATOM
      1 C          64.3286   91.1897   12.5768 C.ar    1  UNL1        0.0369
      2 C          65.0282   92.2762   11.8154 C.ar    1  UNL1        0.0430
      3 C          66.2746   92.8987   12.3714 C.ar    1  UNL1        0.1726
      4 C          66.8213   92.4346   13.6888 C.ar    1  UNL1        0.1754
      5 C          66.1217   91.3480   14.4502 C.ar    1  UNL1        0.0769
      6 C          64.8753   90.7256   13.8942 C.ar    1  UNL1        0.1419
      7 C          61.6593   89.8163    9.9809 C.3     1  UNL1        0.0307
      8 C          62.9057   90.4388   10.5368 C.2     1  UNL1       -0.0257
      9 C          63.0822   90.5672   12.0208 C.2     1  UNL1       -0.0015
     10 O          66.9742   93.9853   11.6099 O.3     1  UNL1       -0.4684
     11 C          66.2432   95.2485   11.2634 C.3     1  UNL1        0.2526
     12 O          68.0677   93.0570   14.2448 O.3     1  UNL1       -0.4683
     13 C          68.1469   93.4043   15.7018 C.3     1  UNL1        0.2526
     14 O          64.1756   89.6389   14.6558 O.3     1  UNL1       -0.4713
     15 C          63.4406   89.9643   15.9222 C.3     1  UNL1        0.2525
@<TRIPOS>BOND
     1     7     8    1
     2     8     9    2
     3     9     1    1
     4     1     2   ar
     5     2     3   ar
     6     3    10    1
     7    10    11    1
     8     3     4   ar
     9     4    12    1
    10    12    13    1
    11     4     5   ar
    12     5     6   ar
    13     6    14    1
    14    14    15    1
    15     6     1   ar
@<TRIPOS>MOLECULE
*****
 15 15 0 0 0
SMALL
GASTEIGER

@<TRIPOS>ATOM
      1 C          65.5038   91.8533   14.4235 C.ar    1  UNL1        0.0369
      2 C          64.5782   91.1022   15.3340 C.ar    1  UNL1        0.0430
      3 C          63.4265   90.3301   14.7618 C.ar    1  UNL1        0.1726
      4 C          63.2003   90.3091   13.2791 C.ar    1  UNL1        0.1754
      5 C          64.1260   91.0602   12.3686 C.ar    1  UNL1        0.0769
      6 C          65.2777   91.8323   12.9408 C.ar    1  UNL1        0.1419
      7 C          69.0357   92.6751   16.0361 C.3     1  UNL1        0.0307
      8 C          67.8839   91.9030   15.4639 C.2     1  UNL1       -0.0257
      9 C          66.6555   92.6253   14.9957 C.2     1  UNL1       -0.0015
     10 O          62.5008   89.5789   15.6724 O.3     1  UNL1       -0.4684
     11 C          63.0590   88.7448   16.7872 C.3     1  UNL1        0.2526
     12 O          62.0486   89.5370   12.7070 O.3     1  UNL1       -0.4683
     13 C          61.5267   89.8708   11.3409 C.3     1  UNL1        0.2526
     14 O          66.2033   92.5834   12.0302 O.3     1  UNL1       -0.4713
     15 C          65.9092   94.0101   11.6726 C.3     1  UNL1        0.2525
@<TRIPOS>BOND
     1     7     8    1
     2     8     9    2
     3     9     1    1
     4     1     2   ar
     5     2     3   ar
     6     3    10    1
     7    10    11    1
     8     3     4   ar
     9     4    12    1
    10    12    13    1
    11     4     5   ar
    12     5     6   ar
    13     6    14    1
    14    14    15    1
    15     6     1   ar
@<TRIPOS>MOLECULE
*****
 15 15 0 0 0
SMALL
GASTEIGER

@<TRIPOS>ATOM
      1 C          62.9233   84.9781    9.1508 C.ar    1  UNL1        0.0369
      2 C          63.5953   83.8836    9.9256 C.ar    1  UNL1        0.0430
      3 C          63.5201   83.8700   11.4237 C.ar    1  UNL1        0.1726
      4 C          62.7730   84.9510   12.1470 C.ar    1  UNL1        0.1754
      5 C          62.1010   86.0455   11.3722 C.ar    1  UNL1        0.0769
      6 C          62.1762   86.0591    9.8741 C.ar    1  UNL1        0.1419
      7 C          61.9284   84.4789    5.3415 C.3     1  UNL1        0.0307
      8 C          61.8533   84.4653    6.8396 C.2     1  UNL1       -0.0257
      9 C          62.9985   84.9917    7.6528 C.2     1  UNL1       -0.0015
     10 O          64.1922   82.7754   12.1985 O.3     1  UNL1       -0.4684
     11 C          63.4032   81.5815   12.6481 C.3     1  UNL1        0.2526
     12 O          62.6978   84.9374   13.6450 O.3     1  UNL1       -0.4683
     13 C          63.8795   85.3739   14.4592 C.3     1  UNL1        0.2526
     14 O          61.5041   87.1538    9.0993 O.3     1  UNL1       -0.4713
     15 C          60.0206   87.1160    8.8807 C.3     1  UNL1        0.2525
@<TRIPOS>BOND
     1     7     8    1
     2     8     9    2
     3     9     1    1
     4     1     2   ar
     5     2     3   ar
     6     3    10    1
     7    10    11    1
     8     3     4   ar
     9     4    12    1
    10    12    13    1
    11     4     5   ar
    12     5     6   ar
    13     6    14    1
    14    14    15    1
    15     6     1   ar
@<TRIPOS>MOLECULE
*****
 15 15 0 0 0
SMALL
GASTEIGER

@<TRIPOS>ATOM
      1 C          63.9004   85.8347   14.5068 C.ar    1  UNL1        0.0369
      2 C          63.7081   85.2510   13.1385 C.ar    1  UNL1        0.0430
      3 C          63.0068   83.9350   12.9763 C.ar    1  UNL1        0.1726
      4 C          62.4979   83.2027   14.1824 C.ar    1  UNL1        0.1754
      5 C          62.6903   83.7864   15.5507 C.ar    1  UNL1        0.0769
      6 C          63.3915   85.1024   15.7129 C.ar    1  UNL1        0.1419
      7 C          64.6550   89.7274   14.3403 C.3     1  UNL1        0.0307
      8 C          63.9537   88.4114   14.1781 C.2     1  UNL1       -0.0257
      9 C          64.6017   87.1508   14.6690 C.2     1  UNL1       -0.0015
     10 O          62.8144   83.3513   11.6080 O.3     1  UNL1       -0.4684
     11 C          64.0065   83.0063   10.7654 C.3     1  UNL1        0.2526
     12 O          61.7967   81.8866   14.0202 O.3     1  UNL1       -0.4683
     13 C          62.5911   80.6395   13.7687 C.3     1  UNL1        0.2526
     14 O          63.5839   85.6861   17.0812 O.3     1  UNL1       -0.4713
     15 C          62.5053   86.5280   17.6959 C.3     1  UNL1        0.2525
@<TRIPOS>BOND
     1     7     8    1
     2     8     9    2
     3     9     1    1
     4     1     2   ar
     5     2     3   ar
     6     3    10    1
     7    10    11    1
     8     3     4   ar
     9     4    12    1
    10    12    13    1
    11     4     5   ar
    12     5     6   ar
    13     6    14    1
    14    14    15    1
    15     6     1   ar
@<TRIPOS>MOLECULE
*****
 15 15 0 0 0
SMALL
GASTEIGER

@<TRIPOS>ATOM
      1 C          62.2629   86.0130   10.0606 C.ar    1  UNL1        0.0369
      2 C          62.0989   85.7750   11.5325 C.ar    1  UNL1        0.0430
      3 C          62.6665   84.5362   12.1597 C.ar    1  UNL1        0.1726
      4 C          63.3980   83.5355   11.3150 C.ar    1  UNL1        0.1754
      5 C          63.5619   83.7736    9.8432 C.ar    1  UNL1        0.0769
      6 C          62.9944   85.0123    9.2160 C.ar    1  UNL1        0.1419
      7 C          59.7577   88.4620    8.1961 C.3     1  UNL1        0.0307
      8 C          60.3253   87.2233    8.8233 C.2     1  UNL1       -0.0257
      9 C          61.6953   87.2517    9.4334 C.2     1  UNL1       -0.0015
     10 O          62.5026   84.2982   13.6316 O.3     1  UNL1       -0.4684
     11 C          63.6240   84.6231   14.5734 C.3     1  UNL1        0.2526
     12 O          63.9656   82.2968   11.9423 O.3     1  UNL1       -0.4683
     13 C          63.0579   81.1639   12.3199 C.3     1  UNL1        0.2526
     14 O          63.1583   85.2503    7.7440 O.3     1  UNL1       -0.4713
     15 C          62.1386   84.7198    6.7803 C.3     1  UNL1        0.2525
@<TRIPOS>BOND
     1     7     8    1
     2     8     9    2
     3     9     1    1
     4     1     2   ar
     5     2     3   ar
     6     3    10    1
     7    10    11    1
     8     3     4   ar
     9     4    12    1
    10    12    13    1
    11     4     5   ar
    12     5     6   ar
    13     6    14    1
    14    14    15    1
    15     6     1   ar
@<TRIPOS>MOLECULE
*****
 15 15 0 0 0
SMALL
GASTEIGER

@<TRIPOS>ATOM
      1 C          62.3544   85.4161   10.1080 C.ar    1  UNL1        0.0369
      2 C          61.6306   86.2607   11.1144 C.ar    1  UNL1        0.0430
      3 C          60.7016   87.3448   10.6543 C.ar    1  UNL1        0.1726
      4 C          60.4965   87.5843    9.1878 C.ar    1  UNL1        0.1754
      5 C          61.2203   86.7397    8.1815 C.ar    1  UNL1        0.0769
      6 C          62.1492   85.6556    8.6416 C.ar    1  UNL1        0.1419
      7 C          63.9619   82.5486   12.3314 C.3     1  UNL1        0.0307
      8 C          63.0329   83.6327   11.8713 C.2     1  UNL1       -0.0257
      9 C          63.2834   84.3320   10.5681 C.2     1  UNL1       -0.0015
     10 O          59.9778   88.1894   11.6607 O.3     1  UNL1       -0.4684
     11 C          60.4029   89.6090   11.8929 C.3     1  UNL1        0.2526
     12 O          59.5675   88.6684    8.7277 O.3     1  UNL1       -0.4683
     13 C          59.4136   88.9527    7.2630 C.3     1  UNL1        0.2526
     14 O          62.8731   84.8110    7.6352 O.3     1  UNL1       -0.4713
     15 C          62.2556   84.5484    6.2936 C.3     1  UNL1        0.2525
@<TRIPOS>BOND
     1     7     8    1
     2     8     9    2
     3     9     1    1
     4     1     2   ar
     5     2     3   ar
     6     3    10    1
     7    10    11    1
     8     3     4   ar
     9     4    12    1
    10    12    13    1
    11     4     5   ar
    12     5     6   ar
    13     6    14    1
    14    14    15    1
    15     6     1   ar
@<TRIPOS>MOLECULE
*****
 15 15 0 0 0
SMALL
GASTEIGER

@<TRIPOS>ATOM
      1 C          62.6667   83.4452   14.0887 C.ar    1  UNL1        0.0369
      2 C          62.8551   83.9423   15.4913 C.ar    1  UNL1        0.0430
      3 C          63.4866   85.2810   15.7341 C.ar    1  UNL1        0.1726
      4 C          63.9298   86.1227   14.5743 C.ar    1  UNL1        0.1754
      5 C          63.7414   85.6256   13.1717 C.ar    1  UNL1        0.0769
      6 C          63.1098   84.2869   12.9289 C.ar    1  UNL1        0.1419
      7 C          62.2621   79.5810   13.2798 C.3     1  UNL1        0.0307
      8 C          62.8936   80.9197   13.5226 C.2     1  UNL1       -0.0257
      9 C          62.0351   82.1065   13.8459 C.2     1  UNL1       -0.0015
     10 O          63.6750   85.7780   17.1369 O.3     1  UNL1       -0.4684
     11 C          62.5812   86.5513   17.8118 C.3     1  UNL1        0.2526
     12 O          64.5613   87.4614   14.8172 O.3     1  UNL1       -0.4683
     13 C          64.1064   88.6581   14.0356 C.3     1  UNL1        0.2526
     14 O          62.9214   83.7898   11.5262 O.3     1  UNL1       -0.4713
     15 C          64.0779   83.1933   10.7802 C.3     1  UNL1        0.2525
@<TRIPOS>BOND
     1     7     8    1
     2     8     9    2
     3     9     1    1
     4     1     2   ar
     5     2     3   ar
     6     3    10    1
     7    10    11    1
     8     3     4   ar
     9     4    12    1
    10    12    13    1
    11     4     5   ar
    12     5     6   ar
    13     6    14    1
    14    14    15    1
    15     6     1   ar
@<TRIPOS>MOLECULE
*****
 15 15 0 0 0
SMALL
GASTEIGER

@<TRIPOS>ATOM
      1 C          62.0670   86.5903   10.1703 C.ar    1  UNL1        0.0369
      2 C          62.5433   87.3636   11.3640 C.ar    1  UNL1        0.0430
      3 C          62.0025   88.7367   11.6327 C.ar    1  UNL1        0.1726
      4 C          60.9855   89.3365   10.7076 C.ar    1  UNL1        0.1754
      5 C          60.5092   88.5632    9.5139 C.ar    1  UNL1        0.0769
      6 C          61.0500   87.1901    9.2452 C.ar    1  UNL1        0.1419
      7 C          63.7143   83.0277   10.7569 C.3     1  UNL1        0.0307
      8 C          63.1735   84.4008   11.0256 C.2     1  UNL1       -0.0257
      9 C          62.6078   85.2172    9.9016 C.2     1  UNL1       -0.0015
     10 O          62.4789   89.5100   12.8265 O.3     1  UNL1       -0.4684
     11 C          63.7729   89.1429   13.4904 C.3     1  UNL1        0.2526
     12 O          60.4447   90.7096   10.9763 O.3     1  UNL1       -0.4683
     13 C          59.0816   90.8739   11.5803 C.3     1  UNL1        0.2526
     14 O          60.5736   86.4167    8.0514 O.3     1  UNL1       -0.4713
     15 C          59.1863   86.6320    7.5231 C.3     1  UNL1        0.2525
@<TRIPOS>BOND
     1     7     8    1
     2     8     9    2
     3     9     1    1
     4     1     2   ar
     5     2     3   ar
     6     3    10    1
     7    10    11    1
     8     3     4   ar
     9     4    12    1
    10    12    13    1
    11     4     5   ar
    12     5     6   ar
    13     6    14    1
    14    14    15    1
    15     6     1   ar
