@<TRIPOS>MOLECULE
*****
 39 42 0 0 0
SMALL
GASTEIGER

@<TRIPOS>ATOM
      1 C          63.3107   86.3048   13.2070 C.2     1  UNL1        0.2894
      2 O          63.5085   87.7012   12.6963 O.2     1  UNL1       -0.2688
      3 N          63.2375   86.0495   14.6833 N.am    1  UNL1       -0.1703
      4 N          63.0439   84.7142   15.3386 N.2     1  UNL1       -0.1783
      5 C          63.0317   84.9241   16.8239 C.2     1  UNL1        0.0938
      6 C          63.2177   86.3892   17.0864 C.3     1  UNL1        0.0799
      7 C          63.3449   87.0847   15.7635 C.3     1  UNL1        0.1809
      8 C          63.5444   88.5569   15.5570 C.2     1  UNL1        0.2432
      9 O          62.5286   89.5314   16.0753 O.2     1  UNL1       -0.2732
     10 N          64.7598   89.0547   14.8323 N.am    1  UNL1       -0.2990
     11 H          65.4264   88.4151   14.4921 H       1  UNL1        0.1498
     12 C          64.9593   90.5269   14.6258 C.3     1  UNL1        0.1179
     13 C          64.8301   91.1160   13.2523 C.ar    1  UNL1        0.0161
     14 C          63.7144   90.6782   12.3504 C.ar    1  UNL1        0.0103
     15 C          63.5852   91.2672   10.9770 C.ar    1  UNL1        0.0575
     16 CL         62.4695   90.8294   10.0750 Cl      1  UNL1       -0.0823
     17 C          64.5718   92.2941   10.5055 C.ar    1  UNL1        0.0129
     18 C          65.6875   92.7319   11.4074 C.ar    1  UNL1        0.0199
     19 C          65.8166   92.1429   12.7808 C.ar    1  UNL1        0.0839
     20 N          66.9324   92.5807   13.6828 N.ar    1  UNL1       -0.1889
     21 C          66.8155   93.5455   14.8254 C.ar    1  UNL1        0.2258
     22 N          68.1717   93.6916   15.4493 N.ar    1  UNL1       -0.1045
     23 N          69.1269   92.8171   14.6923 N.ar    1  UNL1       -0.0222
     24 N          68.3609   92.1305   13.6005 N.ar    1  UNL1       -0.0385
     25 C          63.1863   85.1636   12.2414 C.3     1  UNL1        0.2681
     26 C          62.5819   85.3895   10.8873 C.ar    1  UNL1        0.0265
     27 C          61.2498   86.0680   10.7643 C.ar    1  UNL1        0.0020
     28 C          60.6454   86.2939    9.4102 C.ar    1  UNL1        0.0294
     29 C          61.3731   85.8414    8.1791 C.ar    1  UNL1        0.1401
     30 F          60.7687   86.0673    6.8250 F       1  UNL1       -0.2042
     31 C          62.7052   85.1629    8.3021 C.ar    1  UNL1        0.0294
     32 C          63.3096   84.9370    9.6562 C.ar    1  UNL1        0.0020
     33 O          63.6662   83.7967   12.6300 O.3     1  UNL1       -0.4381
     34 C          63.8238   82.7320   11.5852 C.2     1  UNL1        0.3176
     35 O          65.0298   82.7292   10.6933 O.2     1  UNL1       -0.2501
     36 C          62.7754   81.6701   11.4324 C.3     1  UNL1        0.1096
     37 C          62.8005   80.4586   12.3165 C.3     1  UNL1        0.0116
     38 C          61.0960   81.1200   14.1624 C.3     1  UNL1        0.0000
     39 C          62.4389   80.5812   13.7671 C.3     1  UNL1        0.0006
@<TRIPOS>BOND
     1    38    39    1
     2    39    37    1
     3    37    36    1
     4    36    34    1
     5    34    35    2
     6    34    33    1
     7    25    33    1
     8    25     1    1
     9     1     2    2
    10     1     3   am
    11     3     4    1
    12     4     5    2
    13     5     6    1
    14     6     7    1
    15     7     8    1
    16     8     9    2
    17     8    10   am
    18    10    12    1
    19    12    13    1
    20    13    14   ar
    21    14    15   ar
    22    15    16    1
    23    15    17   ar
    24    17    18   ar
    25    18    19   ar
    26    19    20    1
    27    20    21   ar
    28    21    22   ar
    29    22    23   ar
    30    23    24   ar
    31    25    26    1
    32    26    27   ar
    33    27    28   ar
    34    28    29   ar
    35    29    30    1
    36    29    31   ar
    37    31    32   ar
    38     7     3    1
    39    19    13   ar
    40    24    20   ar
    41    32    26   ar
    42    10    11    1
@<TRIPOS>MOLECULE
*****
 39 42 0 0 0
SMALL
GASTEIGER

@<TRIPOS>ATOM
      1 C          62.2903   87.1296   11.2281 C.2     1  UNL1        0.2894
      2 O          63.0495   88.1206   12.0597 O.2     1  UNL1       -0.2688
      3 N          61.3871   87.6077   10.1302 N.am    1  UNL1       -0.1703
      4 N          60.5689   86.7395    9.2209 N.2     1  UNL1       -0.1783
      5 C          59.8195   87.6331    8.2774 C.2     1  UNL1        0.0938
      6 C          60.1747   89.0534    8.6036 C.3     1  UNL1        0.0799
      7 C          61.1435   89.0377    9.7487 C.3     1  UNL1        0.1809
      8 C          61.7604   90.2408   10.3982 C.2     1  UNL1        0.2432
      9 O          60.9023   91.1998   11.1690 O.2     1  UNL1       -0.2732
     10 N          63.2355   90.4850   10.2770 N.am    1  UNL1       -0.2990
     11 H          63.7987   89.8556    9.7711 H       1  UNL1        0.1498
     12 C          63.8524   91.6881   10.9266 C.3     1  UNL1        0.1179
     13 C          64.3886   91.5936   12.3243 C.ar    1  UNL1        0.0161
     14 C          63.6517   90.7945   13.3579 C.ar    1  UNL1        0.0103
     15 C          64.1879   90.7000   14.7555 C.ar    1  UNL1        0.0575
     16 CL         63.4510   89.9008   15.7892 Cl      1  UNL1       -0.0823
     17 C          65.4610   91.4048   15.1196 C.ar    1  UNL1        0.0129
     18 C          66.1979   92.2039   14.0861 C.ar    1  UNL1        0.0199
     19 C          65.6617   92.2984   12.6884 C.ar    1  UNL1        0.0839
     20 N          66.3985   93.0976   11.6548 N.ar    1  UNL1       -0.1889
     21 C          66.1942   94.5530   11.3549 C.ar    1  UNL1        0.2258
     22 N          67.1385   94.9366   10.2544 N.ar    1  UNL1       -0.1045
     23 N          67.9265   93.7181    9.8741 N.ar    1  UNL1       -0.0222
     24 N          67.4692   92.5816   10.7396 N.ar    1  UNL1       -0.0385
     25 C          62.4344   85.6605   11.4947 C.3     1  UNL1        0.2681
     26 C          62.8699   85.1830   12.8483 C.ar    1  UNL1        0.0265
     27 C          62.1556   84.0395   13.5058 C.ar    1  UNL1        0.0020
     28 C          62.5910   83.5620   14.8594 C.ar    1  UNL1        0.0294
     29 C          63.7406   84.2279   15.5556 C.ar    1  UNL1        0.1401
     30 F          64.1761   83.7505   16.9092 F       1  UNL1       -0.2042
     31 C          64.4549   85.3714   14.8982 C.ar    1  UNL1        0.0294
     32 C          64.0196   85.8490   13.5445 C.ar    1  UNL1        0.0020
     33 O          62.1431   84.6689   10.4075 O.3     1  UNL1       -0.4381
     34 C          63.2077   84.3119    9.4130 C.2     1  UNL1        0.3176
     35 O          63.1790   84.9085    8.0371 O.2     1  UNL1       -0.2501
     36 C          64.3010   83.3584    9.7944 C.3     1  UNL1        0.1096
     37 C          64.1502   82.4917   11.0094 C.3     1  UNL1        0.0116
     38 C          62.7993   80.6892   12.3040 C.3     1  UNL1        0.0000
     39 C          63.1424   81.3808   11.0179 C.3     1  UNL1        0.0006
@<TRIPOS>BOND
     1    38    39    1
     2    39    37    1
     3    37    36    1
     4    36    34    1
     5    34    35    2
     6    34    33    1
     7    25    33    1
     8    25     1    1
     9     1     2    2
    10     1     3   am
    11     3     4    1
    12     4     5    2
    13     5     6    1
    14     6     7    1
    15     7     8    1
    16     8     9    2
    17     8    10   am
    18    10    12    1
    19    12    13    1
    20    13    14   ar
    21    14    15   ar
    22    15    16    1
    23    15    17   ar
    24    17    18   ar
    25    18    19   ar
    26    19    20    1
    27    20    21   ar
    28    21    22   ar
    29    22    23   ar
    30    23    24   ar
    31    25    26    1
    32    26    27   ar
    33    27    28   ar
    34    28    29   ar
    35    29    30    1
    36    29    31   ar
    37    31    32   ar
    38     7     3    1
    39    19    13   ar
    40    24    20   ar
    41    32    26   ar
    42    10    11    1
@<TRIPOS>MOLECULE
*****
 39 42 0 0 0
SMALL
GASTEIGER

@<TRIPOS>ATOM
      1 C          62.2956   86.4736   11.2558 C.2     1  UNL1        0.2894
      2 O          62.7121   87.5402   12.2248 O.2     1  UNL1       -0.2688
      3 N          61.4454   86.8267   10.0716 N.am    1  UNL1       -0.1703
      4 N          60.9537   85.8729    9.0235 N.2     1  UNL1       -0.1783
      5 C          60.1419   86.6523    8.0317 C.2     1  UNL1        0.0938
      6 C          60.1320   88.0878    8.4668 C.3     1  UNL1        0.0799
      7 C          60.9376   88.1956    9.7276 C.3     1  UNL1        0.1809
      8 C          61.1909   89.4516   10.5073 C.2     1  UNL1        0.2432
      9 O          60.0389   90.3018   10.9547 O.2     1  UNL1       -0.2732
     10 N          62.5962   89.8576   10.8397 N.am    1  UNL1       -0.2990
     11 H          63.3523   89.2996   10.5461 H       1  UNL1        0.1498
     12 C          62.8495   91.1136   11.6195 C.3     1  UNL1        0.1179
     13 C          64.2504   91.6237   11.7856 C.ar    1  UNL1        0.0161
     14 C          64.9256   92.3430   10.6557 C.ar    1  UNL1        0.0103
     15 C          66.3264   92.8529   10.8219 C.ar    1  UNL1        0.0575
     16 CL         67.0016   93.5723    9.6920 Cl      1  UNL1       -0.0823
     17 C          67.0519   92.6437   12.1179 C.ar    1  UNL1        0.0129
     18 C          66.3767   91.9244   13.2478 C.ar    1  UNL1        0.0199
     19 C          64.9759   91.4144   13.0817 C.ar    1  UNL1        0.0839
     20 N          64.3007   90.6951   14.2116 N.ar    1  UNL1       -0.1889
     21 C          64.2730   89.2099   14.4201 C.ar    1  UNL1        0.2258
     22 N          63.4898   88.9316   15.6687 N.ar    1  UNL1       -0.1045
     23 N          63.0332   90.2449   16.2319 N.ar    1  UNL1       -0.0222
     24 N          63.5344   91.3347   15.3313 N.ar    1  UNL1       -0.0385
     25 C          62.7294   85.0539   11.4712 C.3     1  UNL1        0.2681
     26 C          63.1603   84.5999   12.8343 C.ar    1  UNL1        0.0265
     27 C          64.6192   84.4423   13.1458 C.ar    1  UNL1        0.0020
     28 C          65.0502   83.9883   14.5089 C.ar    1  UNL1        0.0294
     29 C          64.0225   83.6920   15.5605 C.ar    1  UNL1        0.1401
     30 F          64.4535   83.2380   16.9236 F       1  UNL1       -0.2042
     31 C          62.5637   83.8497   15.2490 C.ar    1  UNL1        0.0294
     32 C          62.1326   84.3037   13.8859 C.ar    1  UNL1        0.0020
     33 O          62.7321   84.0883   10.3234 O.3     1  UNL1       -0.4381
     34 C          63.4825   82.7942   10.4337 C.2     1  UNL1        0.3176
     35 O          64.8993   82.7052    9.9494 O.2     1  UNL1       -0.2501
     36 C          62.8161   81.5891   11.0284 C.3     1  UNL1        0.1096
     37 C          63.2013   81.1192   12.3999 C.3     1  UNL1        0.0116
     38 C          61.1372   80.8040   13.9458 C.3     1  UNL1        0.0000
     39 C          62.2809   80.2200   13.1707 C.3     1  UNL1        0.0006
@<TRIPOS>BOND
     1    38    39    1
     2    39    37    1
     3    37    36    1
     4    36    34    1
     5    34    35    2
     6    34    33    1
     7    25    33    1
     8    25     1    1
     9     1     2    2
    10     1     3   am
    11     3     4    1
    12     4     5    2
    13     5     6    1
    14     6     7    1
    15     7     8    1
    16     8     9    2
    17     8    10   am
    18    10    12    1
    19    12    13    1
    20    13    14   ar
    21    14    15   ar
    22    15    16    1
    23    15    17   ar
    24    17    18   ar
    25    18    19   ar
    26    19    20    1
    27    20    21   ar
    28    21    22   ar
    29    22    23   ar
    30    23    24   ar
    31    25    26    1
    32    26    27   ar
    33    27    28   ar
    34    28    29   ar
    35    29    30    1
    36    29    31   ar
    37    31    32   ar
    38     7     3    1
    39    19    13   ar
    40    24    20   ar
    41    32    26   ar
    42    10    11    1
@<TRIPOS>MOLECULE
*****
 39 42 0 0 0
SMALL
GASTEIGER

@<TRIPOS>ATOM
      1 C          63.1858   86.7737   12.4971 C.2     1  UNL1        0.2894
      2 O          63.6613   88.0575   13.1101 O.2     1  UNL1       -0.2688
      3 N          62.3031   86.8032   11.2847 N.am    1  UNL1       -0.1703
      4 N          61.7524   85.6075   10.5657 N.2     1  UNL1       -0.1783
      5 C          60.9250   86.0990    9.4150 C.2     1  UNL1        0.0938
      6 C          60.9644   87.5984    9.4229 C.3     1  UNL1        0.0799
      7 C          61.8161   88.0337   10.5784 C.3     1  UNL1        0.1809
      8 C          62.1264   89.4506   10.9606 C.2     1  UNL1        0.2432
      9 O          61.0284   90.3585   11.4297 O.2     1  UNL1       -0.2732
     10 N          63.5347   89.9597   10.8735 N.am    1  UNL1       -0.2990
     11 H          64.2554   89.3638   10.5656 H       1  UNL1        0.1498
     12 C          63.8450   91.3766   11.2557 C.3     1  UNL1        0.1179
     13 C          64.5200   91.6703   12.5627 C.ar    1  UNL1        0.0161
     14 C          63.8974   91.2120   13.8480 C.ar    1  UNL1        0.0103
     15 C          64.5724   91.5057   15.1549 C.ar    1  UNL1        0.0575
     16 CL         63.9498   91.0474   16.4404 Cl      1  UNL1       -0.0823
     17 C          65.8701   92.2578   15.1764 C.ar    1  UNL1        0.0129
     18 C          66.4927   92.7161   13.8911 C.ar    1  UNL1        0.0199
     19 C          65.8177   92.4224   12.5842 C.ar    1  UNL1        0.0839
     20 N          66.4403   92.8807   11.2987 N.ar    1  UNL1       -0.1889
     21 C          66.0083   94.0622   10.4819 C.ar    1  UNL1        0.2258
     22 N          66.9053   94.1497    9.2828 N.ar    1  UNL1       -0.1045
     23 N          67.8917   93.0221    9.3586 N.ar    1  UNL1       -0.0222
     24 N          67.6043   92.2379   10.6045 N.ar    1  UNL1       -0.0385
     25 C          63.5931   85.4603   13.0966 C.3     1  UNL1        0.2681
     26 C          63.4885   84.2018   12.2872 C.ar    1  UNL1        0.0265
     27 C          64.3782   83.9999   11.0965 C.ar    1  UNL1        0.0020
     28 C          64.2736   82.7414   10.2870 C.ar    1  UNL1        0.0294
     29 C          63.2794   81.6849   10.6682 C.ar    1  UNL1        0.1401
     30 F          63.1748   80.4264    9.8588 F       1  UNL1       -0.2042
     31 C          62.3897   81.8869   11.8589 C.ar    1  UNL1        0.0294
     32 C          62.4943   83.1453   12.6684 C.ar    1  UNL1        0.0020
     33 O          64.1050   85.4056   14.5054 O.3     1  UNL1       -0.4381
     34 C          63.3989   84.5654   15.5279 C.2     1  UNL1        0.3176
     35 O          63.7391   83.1113   15.6681 O.2     1  UNL1       -0.2501
     36 C          62.3525   85.1793   16.4101 C.3     1  UNL1        0.1096
     37 C          62.7549   85.8879   17.6695 C.3     1  UNL1        0.0116
     38 C          63.1839   88.1747   16.5133 C.3     1  UNL1        0.0000
     39 C          62.7602   87.3871   17.7176 C.3     1  UNL1        0.0006
@<TRIPOS>BOND
     1    38    39    1
     2    39    37    1
     3    37    36    1
     4    36    34    1
     5    34    35    2
     6    34    33    1
     7    25    33    1
     8    25     1    1
     9     1     2    2
    10     1     3   am
    11     3     4    1
    12     4     5    2
    13     5     6    1
    14     6     7    1
    15     7     8    1
    16     8     9    2
    17     8    10   am
    18    10    12    1
    19    12    13    1
    20    13    14   ar
    21    14    15   ar
    22    15    16    1
    23    15    17   ar
    24    17    18   ar
    25    18    19   ar
    26    19    20    1
    27    20    21   ar
    28    21    22   ar
    29    22    23   ar
    30    23    24   ar
    31    25    26    1
    32    26    27   ar
    33    27    28   ar
    34    28    29   ar
    35    29    30    1
    36    29    31   ar
    37    31    32   ar
    38     7     3    1
    39    19    13   ar
    40    24    20   ar
    41    32    26   ar
    42    10    11    1
@<TRIPOS>MOLECULE
*****
 39 42 0 0 0
SMALL
GASTEIGER

@<TRIPOS>ATOM
      1 C          62.2828   87.1696   11.1436 C.2     1  UNL1        0.2894
      2 O          63.0751   88.1097   12.0029 O.2     1  UNL1       -0.2688
      3 N          61.3383   87.7118   10.1122 N.am    1  UNL1       -0.1703
      4 N          60.4841   86.8990    9.1849 N.2     1  UNL1       -0.1783
      5 C          59.7000   87.8468    8.3265 C.2     1  UNL1        0.0938
      6 C          60.0696   89.2454    8.7232 C.3     1  UNL1        0.0799
      7 C          61.0821   89.1619    9.8268 C.3     1  UNL1        0.1809
      8 C          61.7254   90.3245   10.5229 C.2     1  UNL1        0.2432
      9 O          60.9242   91.1694   11.4685 O.2     1  UNL1       -0.2732
     10 N          63.1700   90.6422   10.2733 N.am    1  UNL1       -0.2990
     11 H          63.6959   90.0877    9.6527 H       1  UNL1        0.1498
     12 C          63.8133   91.8048   10.9693 C.3     1  UNL1        0.1179
     13 C          64.4306   91.6199   12.3240 C.ar    1  UNL1        0.0161
     14 C          63.7053   90.8372   13.3781 C.ar    1  UNL1        0.0103
     15 C          64.3225   90.6524   14.7327 C.ar    1  UNL1        0.0575
     16 CL         63.5972   89.8696   15.7869 Cl      1  UNL1       -0.0823
     17 C          65.6650   91.2503   15.0331 C.ar    1  UNL1        0.0129
     18 C          66.3903   92.0330   13.9789 C.ar    1  UNL1        0.0199
     19 C          65.7731   92.2178   12.6244 C.ar    1  UNL1        0.0839
     20 N          66.4983   93.0005   11.5701 N.ar    1  UNL1       -0.1889
     21 C          67.3343   92.4268   10.4647 C.ar    1  UNL1        0.2258
     22 N          67.8676   93.5661    9.6477 N.ar    1  UNL1       -0.1045
     23 N          67.3612   94.8441   10.2481 N.ar    1  UNL1       -0.0222
     24 N          66.5150   94.4945   11.4363 N.ar    1  UNL1       -0.0385
     25 C          62.4351   85.6873   11.3158 C.3     1  UNL1        0.2681
     26 C          62.9440   85.1313   12.6127 C.ar    1  UNL1        0.0265
     27 C          62.6547   83.7067   12.9828 C.ar    1  UNL1        0.0020
     28 C          63.1636   83.1507   14.2796 C.ar    1  UNL1        0.0294
     29 C          63.9618   84.0191   15.2063 C.ar    1  UNL1        0.1401
     30 F          64.4707   83.4631   16.5031 F       1  UNL1       -0.2042
     31 C          64.2510   85.4437   14.8361 C.ar    1  UNL1        0.0294
     32 C          63.7421   85.9998   13.5393 C.ar    1  UNL1        0.0020
     33 O          62.0784   84.7611   10.1912 O.3     1  UNL1       -0.4381
     34 C          63.1410   84.2860    9.2451 C.2     1  UNL1        0.3176
     35 O          64.1380   83.2583    9.6921 O.2     1  UNL1       -0.2501
     36 C          63.2067   84.8386    7.8522 C.3     1  UNL1        0.1096
     37 C          61.9419   85.1129    7.0937 C.3     1  UNL1        0.0116
     38 C          62.0103   84.2309    4.6509 C.3     1  UNL1        0.0000
     39 C          61.4702   84.1468    6.0477 C.3     1  UNL1        0.0006
@<TRIPOS>BOND
     1    38    39    1
     2    39    37    1
     3    37    36    1
     4    36    34    1
     5    34    35    2
     6    34    33    1
     7    25    33    1
     8    25     1    1
     9     1     2    2
    10     1     3   am
    11     3     4    1
    12     4     5    2
    13     5     6    1
    14     6     7    1
    15     7     8    1
    16     8     9    2
    17     8    10   am
    18    10    12    1
    19    12    13    1
    20    13    14   ar
    21    14    15   ar
    22    15    16    1
    23    15    17   ar
    24    17    18   ar
    25    18    19   ar
    26    19    20    1
    27    20    21   ar
    28    21    22   ar
    29    22    23   ar
    30    23    24   ar
    31    25    26    1
    32    26    27   ar
    33    27    28   ar
    34    28    29   ar
    35    29    30    1
    36    29    31   ar
    37    31    32   ar
    38     7     3    1
    39    19    13   ar
    40    24    20   ar
    41    32    26   ar
    42    10    11    1
@<TRIPOS>MOLECULE
*****
 39 42 0 0 0
SMALL
GASTEIGER

@<TRIPOS>ATOM
      1 C          63.4137   89.3672   12.7539 C.2     1  UNL1        0.2894
      2 O          64.3812   88.2717   13.0911 O.2     1  UNL1       -0.2688
      3 N          62.1945   89.0649   11.9340 N.am    1  UNL1       -0.1703
      4 N          61.1435   90.0518   11.5201 N.2     1  UNL1       -0.1783
      5 C          60.1116   89.3196   10.7143 C.2     1  UNL1        0.0938
      6 C          60.5250   87.8801   10.6304 C.3     1  UNL1        0.0799
      7 C          61.8122   87.7227   11.3842 C.3     1  UNL1        0.1809
      8 C          62.5820   86.4471   11.5577 C.2     1  UNL1        0.2432
      9 O          62.7149   85.4894   10.4110 O.2     1  UNL1       -0.2732
     10 N          63.2190   86.1292   12.8781 N.am    1  UNL1       -0.2990
     11 H          63.1318   86.7577   13.6308 H       1  UNL1        0.1498
     12 C          63.9888   84.8536   13.0516 C.3     1  UNL1        0.1179
     13 C          63.2596   83.5620   13.2756 C.ar    1  UNL1        0.0161
     14 C          63.3278   82.4737   12.2456 C.ar    1  UNL1        0.0103
     15 C          62.5986   81.1823   12.4696 C.ar    1  UNL1        0.0575
     16 CL         62.6668   80.0939   11.4396 Cl      1  UNL1       -0.0823
     17 C          61.8011   80.9790   13.7237 C.ar    1  UNL1        0.0129
     18 C          61.7329   82.0672   14.7538 C.ar    1  UNL1        0.0199
     19 C          62.4621   83.3587   14.5297 C.ar    1  UNL1        0.0839
     20 N          62.3939   84.4470   15.5598 N.ar    1  UNL1       -0.1889
     21 C          63.5556   85.0173   16.3182 C.ar    1  UNL1        0.2258
     22 N          63.0317   86.0789   17.2394 N.ar    1  UNL1       -0.1045
     23 N          61.5460   86.1646   17.0503 N.ar    1  UNL1       -0.0222
     24 N          61.1519   85.1561   16.0123 N.ar    1  UNL1       -0.0385
     25 C          63.6654   90.7650   13.2366 C.3     1  UNL1        0.2681
     26 C          64.5055   91.7008   12.4191 C.ar    1  UNL1        0.0265
     27 C          65.6929   92.3772   13.0377 C.ar    1  UNL1        0.0020
     28 C          66.5331   93.3131   12.2203 C.ar    1  UNL1        0.0294
     29 C          66.1859   93.5726   10.7843 C.ar    1  UNL1        0.1401
     30 F          67.0260   94.5084    9.9668 F       1  UNL1       -0.2042
     31 C          64.9985   92.8962   10.1657 C.ar    1  UNL1        0.0294
     32 C          64.1583   91.9603   10.9831 C.ar    1  UNL1        0.0020
     33 O          63.0770   91.2267   14.5368 O.3     1  UNL1       -0.4381
     34 C          63.7027   90.8078   15.8340 C.2     1  UNL1        0.3176
     35 O          63.4455   89.4353   16.3819 O.2     1  UNL1       -0.2501
     36 C          64.5855   91.7612   16.5834 C.3     1  UNL1        0.1096
     37 C          65.6573   92.5191   15.8576 C.3     1  UNL1        0.0116
     38 C          68.2190   92.1048   15.7296 C.3     1  UNL1        0.0000
     39 C          67.0253   92.6454   16.4597 C.3     1  UNL1        0.0006
@<TRIPOS>BOND
     1    38    39    1
     2    39    37    1
     3    37    36    1
     4    36    34    1
     5    34    35    2
     6    34    33    1
     7    25    33    1
     8    25     1    1
     9     1     2    2
    10     1     3   am
    11     3     4    1
    12     4     5    2
    13     5     6    1
    14     6     7    1
    15     7     8    1
    16     8     9    2
    17     8    10   am
    18    10    12    1
    19    12    13    1
    20    13    14   ar
    21    14    15   ar
    22    15    16    1
    23    15    17   ar
    24    17    18   ar
    25    18    19   ar
    26    19    20    1
    27    20    21   ar
    28    21    22   ar
    29    22    23   ar
    30    23    24   ar
    31    25    26    1
    32    26    27   ar
    33    27    28   ar
    34    28    29   ar
    35    29    30    1
    36    29    31   ar
    37    31    32   ar
    38     7     3    1
    39    19    13   ar
    40    24    20   ar
    41    32    26   ar
    42    10    11    1
@<TRIPOS>MOLECULE
*****
 39 42 0 0 0
SMALL
GASTEIGER

@<TRIPOS>ATOM
      1 C          65.0682   91.0265   13.4723 C.2     1  UNL1        0.2894
      2 O          65.6696   90.0480   14.4370 O.2     1  UNL1       -0.2688
      3 N          63.8931   90.6246   12.6310 N.am    1  UNL1       -0.1703
      4 N          63.1895   91.4902   11.6283 N.2     1  UNL1       -0.1783
      5 C          62.0769   90.6870   11.0223 C.2     1  UNL1        0.0938
      6 C          62.0930   89.3251   11.6506 C.3     1  UNL1        0.0799
      7 C          63.2155   89.2864   12.6448 C.3     1  UNL1        0.1809
      8 C          63.5939   88.1153   13.5023 C.2     1  UNL1        0.2432
      9 O          63.6489   88.2645   14.9938 O.2     1  UNL1       -0.2732
     10 N          63.9174   86.7949   12.8682 N.am    1  UNL1       -0.2990
     11 H          63.8814   86.6970   11.8892 H       1  UNL1        0.1498
     12 C          64.2959   85.6239   13.7256 C.3     1  UNL1        0.1179
     13 C          63.5191   84.3440   13.6325 C.ar    1  UNL1        0.0161
     14 C          63.7149   83.4316   12.4581 C.ar    1  UNL1        0.0103
     15 C          62.9381   82.1518   12.3650 C.ar    1  UNL1        0.0575
     16 CL         63.1339   81.2393   11.1906 Cl      1  UNL1       -0.0823
     17 C          61.9655   81.7844   13.4463 C.ar    1  UNL1        0.0129
     18 C          61.7698   82.6968   14.6207 C.ar    1  UNL1        0.0199
     19 C          62.5465   83.9766   14.7138 C.ar    1  UNL1        0.0839
     20 N          62.3507   84.8890   15.8882 N.ar    1  UNL1       -0.1889
     21 C          63.3936   85.2587   16.9010 C.ar    1  UNL1        0.2258
     22 N          62.7651   86.1901   17.8947 N.ar    1  UNL1       -0.1045
     23 N          61.3337   86.3961   17.4960 N.ar    1  UNL1       -0.0222
     24 N          61.0777   85.5920   16.2559 N.ar    1  UNL1       -0.0385
     25 C          65.6418   92.4070   13.3489 C.3     1  UNL1        0.2681
     26 C          66.2017   92.8721   12.0374 C.ar    1  UNL1        0.0265
     27 C          65.7297   94.1625   11.4357 C.ar    1  UNL1        0.0020
     28 C          66.2895   94.6276   10.1241 C.ar    1  UNL1        0.0294
     29 C          67.3215   93.8023    9.4143 C.ar    1  UNL1        0.1401
     30 F          67.8814   94.2673    8.1027 F       1  UNL1       -0.2042
     31 C          67.7936   92.5119   10.0159 C.ar    1  UNL1        0.0294
     32 C          67.2337   92.0468   11.3275 C.ar    1  UNL1        0.0020
     33 O          65.6554   93.3224   14.5371 O.3     1  UNL1       -0.4381
     34 C          65.6728   92.7511   15.9239 C.2     1  UNL1        0.3176
     35 O          64.3865   92.5539   16.6699 O.2     1  UNL1       -0.2501
     36 C          66.9764   92.3768   16.5647 C.3     1  UNL1        0.1096
     37 C          68.1527   92.0064   15.7108 C.3     1  UNL1        0.0116
     38 C          69.1442   94.3956   15.9528 C.3     1  UNL1        0.0000
     39 C          69.1165   93.0645   15.2619 C.3     1  UNL1        0.0006
@<TRIPOS>BOND
     1    38    39    1
     2    39    37    1
     3    37    36    1
     4    36    34    1
     5    34    35    2
     6    34    33    1
     7    25    33    1
     8    25     1    1
     9     1     2    2
    10     1     3   am
    11     3     4    1
    12     4     5    2
    13     5     6    1
    14     6     7    1
    15     7     8    1
    16     8     9    2
    17     8    10   am
    18    10    12    1
    19    12    13    1
    20    13    14   ar
    21    14    15   ar
    22    15    16    1
    23    15    17   ar
    24    17    18   ar
    25    18    19   ar
    26    19    20    1
    27    20    21   ar
    28    21    22   ar
    29    22    23   ar
    30    23    24   ar
    31    25    26    1
    32    26    27   ar
    33    27    28   ar
    34    28    29   ar
    35    29    30    1
    36    29    31   ar
    37    31    32   ar
    38     7     3    1
    39    19    13   ar
    40    24    20   ar
    41    32    26   ar
    42    10    11    1
@<TRIPOS>MOLECULE
*****
 39 42 0 0 0
SMALL
GASTEIGER

@<TRIPOS>ATOM
      1 C          63.1492   86.6463   12.5708 C.2     1  UNL1        0.2894
      2 O          63.5280   87.9223   13.2624 O.2     1  UNL1       -0.2688
      3 N          62.2719   86.6842   11.3547 N.am    1  UNL1       -0.1703
      4 N          61.8121   85.4968   10.5619 N.2     1  UNL1       -0.1783
      5 C          60.9563   85.9949    9.4351 C.2     1  UNL1        0.0938
      6 C          60.8873   87.4902    9.5316 C.3     1  UNL1        0.0799
      7 C          61.7003   87.9162   10.7180 C.3     1  UNL1        0.1809
      8 C          61.9057   89.3266   11.1855 C.2     1  UNL1        0.2432
      9 O          60.7290   90.1559   11.6070 O.2     1  UNL1       -0.2732
     10 N          63.2878   89.9077   11.2316 N.am    1  UNL1       -0.2990
     11 H          64.0602   89.3634   10.9550 H       1  UNL1        0.1498
     12 C          63.4932   91.3180   11.6992 C.3     1  UNL1        0.1179
     13 C          64.8692   91.9153   11.6991 C.ar    1  UNL1        0.0161
     14 C          65.5580   92.2122   10.4001 C.ar    1  UNL1        0.0103
     15 C          66.9339   92.8094   10.4001 C.ar    1  UNL1        0.0575
     16 CL         67.6227   93.1063    9.1011 Cl      1  UNL1       -0.0823
     17 C          67.6211   93.1099   11.6992 C.ar    1  UNL1        0.0129
     18 C          66.9324   92.8131   12.9982 C.ar    1  UNL1        0.0199
     19 C          65.5564   92.2158   12.9982 C.ar    1  UNL1        0.0839
     20 N          64.8676   91.9190   14.2972 N.ar    1  UNL1       -0.1889
     21 C          65.3129   92.3739   15.6554 C.ar    1  UNL1        0.2258
     22 N          64.3331   91.8511   16.6637 N.ar    1  UNL1       -0.1045
     23 N          63.2821   91.0731   15.9287 N.ar    1  UNL1       -0.0222
     24 N          63.6125   91.1150   14.4661 N.ar    1  UNL1       -0.0385
     25 C          63.6477   85.3323   13.0954 C.3     1  UNL1        0.2681
     26 C          63.5200   84.0938   12.2590 C.ar    1  UNL1        0.0265
     27 C          64.3767   83.9205   11.0399 C.ar    1  UNL1        0.0020
     28 C          64.2490   82.6819   10.2035 C.ar    1  UNL1        0.0294
     29 C          63.2648   81.6166   10.5861 C.ar    1  UNL1        0.1401
     30 F          63.1371   80.3781    9.7497 F       1  UNL1       -0.2042
     31 C          62.4082   81.7899   11.8052 C.ar    1  UNL1        0.0294
     32 C          62.5358   83.0285   12.6416 C.ar    1  UNL1        0.0020
     33 O          64.2740   85.2571   14.4563 O.3     1  UNL1       -0.4381
     34 C          63.6410   84.4199   15.5279 C.2     1  UNL1        0.3176
     35 O          64.0990   83.0082   15.7452 O.2     1  UNL1       -0.2501
     36 C          62.5501   84.9943   16.3822 C.3     1  UNL1        0.1096
     37 C          62.8958   85.7758   17.6150 C.3     1  UNL1        0.0116
     38 C          63.1726   88.2470   16.8623 C.3     1  UNL1        0.0000
     39 C          62.5010   87.2189   17.7236 C.3     1  UNL1        0.0006
@<TRIPOS>BOND
     1    38    39    1
     2    39    37    1
     3    37    36    1
     4    36    34    1
     5    34    35    2
     6    34    33    1
     7    25    33    1
     8    25     1    1
     9     1     2    2
    10     1     3   am
    11     3     4    1
    12     4     5    2
    13     5     6    1
    14     6     7    1
    15     7     8    1
    16     8     9    2
    17     8    10   am
    18    10    12    1
    19    12    13    1
    20    13    14   ar
    21    14    15   ar
    22    15    16    1
    23    15    17   ar
    24    17    18   ar
    25    18    19   ar
    26    19    20    1
    27    20    21   ar
    28    21    22   ar
    29    22    23   ar
    30    23    24   ar
    31    25    26    1
    32    26    27   ar
    33    27    28   ar
    34    28    29   ar
    35    29    30    1
    36    29    31   ar
    37    31    32   ar
    38     7     3    1
    39    19    13   ar
    40    24    20   ar
    41    32    26   ar
    42    10    11    1
@<TRIPOS>MOLECULE
*****
 39 42 0 0 0
SMALL
GASTEIGER

@<TRIPOS>ATOM
      1 C          62.1511   87.5857   11.0777 C.2     1  UNL1        0.2894
      2 O          63.5326   88.1251   10.8525 O.2     1  UNL1       -0.2688
      3 N          61.0194   88.5236   11.3770 N.am    1  UNL1       -0.1703
      4 N          59.5923   88.1329   11.6234 N.2     1  UNL1       -0.1783
      5 C          58.8069   89.3847   11.8811 C.2     1  UNL1        0.0938
      6 C          59.7487   90.5489   11.7939 C.3     1  UNL1        0.0799
      7 C          61.1160   90.0168   11.4823 C.3     1  UNL1        0.1809
      8 C          62.3614   90.8342   11.3069 C.2     1  UNL1        0.2432
      9 O          62.6435   91.4985    9.9920 O.2     1  UNL1       -0.2732
     10 N          63.3247   90.9874   12.4465 N.am    1  UNL1       -0.2990
     11 H          63.1396   90.5514   13.3096 H       1  UNL1        0.1498
     12 C          64.5701   91.8048   12.2711 C.3     1  UNL1        0.1179
     13 C          65.3974   92.1771   13.4658 C.ar    1  UNL1        0.0161
     14 C          64.8338   92.0196   14.8469 C.ar    1  UNL1        0.0103
     15 C          65.6611   92.3918   16.0414 C.ar    1  UNL1        0.0575
     16 CL         65.0975   92.2344   17.4226 Cl      1  UNL1       -0.0823
     17 C          67.0520   92.9215   15.8549 C.ar    1  UNL1        0.0129
     18 C          67.6156   93.0789   14.4738 C.ar    1  UNL1        0.0199
     19 C          66.7883   92.7067   13.2792 C.ar    1  UNL1        0.0839
     20 N          67.3519   92.8642   11.8980 N.ar    1  UNL1       -0.1889
     21 C          66.8980   93.8558   10.8682 C.ar    1  UNL1        0.2258
     22 N          67.7339   93.6621    9.6380 N.ar    1  UNL1       -0.1045
     23 N          68.7046   92.5506    9.9074 N.ar    1  UNL1       -0.0222
     24 N          68.4685   92.0575   11.3041 N.ar    1  UNL1       -0.0385
     25 C          61.9015   86.1085   11.0035 C.3     1  UNL1        0.2681
     26 C          62.5558   85.1869   11.9896 C.ar    1  UNL1        0.0265
     27 C          63.2290   85.7472   13.2073 C.ar    1  UNL1        0.0020
     28 C          63.8834   84.8256   14.1935 C.ar    1  UNL1        0.0294
     29 C          63.8645   83.3437   13.9619 C.ar    1  UNL1        0.1401
     30 F          64.5189   82.4221   14.9480 F       1  UNL1       -0.2042
     31 C          63.1913   82.7834   12.7442 C.ar    1  UNL1        0.0294
     32 C          62.5370   83.7050   11.7580 C.ar    1  UNL1        0.0020
     33 O          60.9975   85.5530    9.9432 O.3     1  UNL1       -0.4381
     34 C          61.3944   85.6382    8.4992 C.2     1  UNL1        0.3176
     35 O          62.8219   85.4101    8.0991 O.2     1  UNL1       -0.2501
     36 C          60.3637   85.9514    7.4554 C.3     1  UNL1        0.1096
     37 C          59.1427   86.7424    7.8206 C.3     1  UNL1        0.0116
     38 C          59.9899   89.1818    8.1064 C.3     1  UNL1        0.0000
     39 C          59.0575   88.1972    7.4652 C.3     1  UNL1        0.0006
@<TRIPOS>BOND
     1    38    39    1
     2    39    37    1
     3    37    36    1
     4    36    34    1
     5    34    35    2
     6    34    33    1
     7    25    33    1
     8    25     1    1
     9     1     2    2
    10     1     3   am
    11     3     4    1
    12     4     5    2
    13     5     6    1
    14     6     7    1
    15     7     8    1
    16     8     9    2
    17     8    10   am
    18    10    12    1
    19    12    13    1
    20    13    14   ar
    21    14    15   ar
    22    15    16    1
    23    15    17   ar
    24    17    18   ar
    25    18    19   ar
    26    19    20    1
    27    20    21   ar
    28    21    22   ar
    29    22    23   ar
    30    23    24   ar
    31    25    26    1
    32    26    27   ar
    33    27    28   ar
    34    28    29   ar
    35    29    30    1
    36    29    31   ar
    37    31    32   ar
    38     7     3    1
    39    19    13   ar
    40    24    20   ar
    41    32    26   ar
    42    10    11    1
