@<TRIPOS>MOLECULE
*****
 34 38 0 0 0
SMALL
GASTEIGER

@<TRIPOS>ATOM
      1 C          65.0459   84.8094   14.3385 C.3     1  UNL1        0.0730
      2 N          64.3804   85.8741   15.1593 N.3     1  UNL1       -0.2726
      3 C          63.5638   85.6513   16.3976 C.3     1  UNL1        0.0721
      4 C          63.0934   86.9880   16.8894 C.3     1  UNL1        0.0190
      5 C          63.6193   88.0370   15.9550 C.3     1  UNL1        0.0201
      6 C          63.0125   89.2055   16.6735 C.3     1  UNL1        0.0061
      7 C          63.8291   89.4284   15.4352 C.3     1  UNL1        0.0237
      8 C          64.4147   87.3486   14.8857 C.3     1  UNL1        0.0724
      9 C          64.4216   90.3603   14.4201 C.ar    1  UNL1       -0.0225
     10 C          63.6872   90.6438   13.1433 C.ar    1  UNL1       -0.0043
     11 C          64.2797   91.5757   12.1282 C.ar    1  UNL1        0.0035
     12 C          65.6068   92.2241   12.3900 C.ar    1  UNL1        0.0714
     13 C          66.3412   91.9406   13.6668 C.ar    1  UNL1        0.0035
     14 C          65.7487   91.0087   14.6819 C.ar    1  UNL1       -0.0043
     15 C          66.1993   93.1560   11.3749 C.3     1  UNL1        0.4186
     16 F          66.7919   94.0880   10.3598 F       1  UNL1       -0.1659
     17 F          66.3022   92.0242   10.3959 F       1  UNL1       -0.1659
     18 F          66.0965   94.2878   12.3539 F       1  UNL1       -0.1659
     19 C          64.4388   83.4406   14.2513 C.3     1  UNL1        0.0294
     20 C          64.0888   82.8590   12.9136 C.3     1  UNL1        0.0666
     21 S          64.1037   83.7279   11.6910 S.3     1  UNL1       -0.0756
     22 C          61.4680   86.2702   10.4045 C.ar    1  UNL1        0.1680
     23 N          61.2144   86.3125   11.8823 N.ar    1  UNL1       -0.1282
     24 N          62.1708   85.3653   12.5441 N.ar    1  UNL1       -0.1221
     25 C          63.0156   84.7376   11.4753 C.ar    1  UNL1        0.1932
     26 N          62.5813   85.2968   10.1530 N.ar    1  UNL1       -0.2884
     27 C          63.1587   84.9445    8.8142 C.3     1  UNL1        0.1340
     28 C          61.8090   89.2477   10.2692 C.3     1  UNL1        0.0522
     29 C          60.9073   88.5509    9.2938 C.ar    1  UNL1        0.0623
     30 N          60.1761   89.3430    8.2507 N.ar    1  UNL1       -0.2480
     31 C          59.2744   88.6463    7.2753 C.ar    1  UNL1        0.0984
     32 C          59.1038   87.1575    7.3429 C.ar    1  UNL1        0.0208
     33 C          59.8350   86.3655    8.3860 C.ar    1  UNL1        0.0058
     34 C          60.7367   87.0622    9.3614 C.ar    1  UNL1        0.0495
@<TRIPOS>BOND
     1    28    29    1
     2    29    30   ar
     3    30    31   ar
     4    31    32   ar
     5    32    33   ar
     6    33    34   ar
     7    34    22    1
     8    22    23   ar
     9    23    24   ar
    10    24    25   ar
    11    25    21    1
    12    21    20    1
    13    20    19    1
    14    19     1    1
    15     1     2    1
    16     2     3    1
    17     3     4    1
    18     5     4    1
    19     5     6    1
    20     6     7    1
    21     7     9    1
    22     9    10   ar
    23    10    11   ar
    24    11    12   ar
    25    12    15    1
    26    15    16    1
    27    15    17    1
    28    15    18    1
    29    12    13   ar
    30    13    14   ar
    31     5     8    1
    32    25    26   ar
    33    26    27    1
    34    34    29   ar
    35    26    22   ar
    36     8     2    1
    37     7     5    1
    38    14     9   ar
@<TRIPOS>MOLECULE
*****
 34 38 0 0 0
SMALL
GASTEIGER

@<TRIPOS>ATOM
      1 C          64.2100   87.0985   15.2101 C.3     1  UNL1        0.0730
      2 N          64.0571   85.8733   14.3583 N.3     1  UNL1       -0.2726
      3 C          64.6057   84.5116   14.6659 C.3     1  UNL1        0.0721
      4 C          64.2164   83.5915   13.5471 C.3     1  UNL1        0.0190
      5 C          63.4271   84.3845   12.5480 C.3     1  UNL1        0.0201
      6 C          63.1926   83.2490   11.5965 C.3     1  UNL1        0.0061
      7 C          62.6439   84.6107   11.2889 C.3     1  UNL1        0.0237
      8 C          63.3287   85.7948   13.0494 C.3     1  UNL1        0.0724
      9 C          61.8750   85.5275   10.3843 C.ar    1  UNL1       -0.0225
     10 C          61.9818   85.3757    8.8959 C.ar    1  UNL1       -0.0043
     11 C          61.2128   86.2925    7.9913 C.ar    1  UNL1        0.0035
     12 C          60.3371   87.3612    8.5753 C.ar    1  UNL1        0.0714
     13 C          60.2303   87.5130   10.0638 C.ar    1  UNL1        0.0035
     14 C          60.9992   86.5962   10.9683 C.ar    1  UNL1       -0.0043
     15 C          59.5682   88.2780    7.6708 C.3     1  UNL1        0.4186
     16 F          58.7992   89.1949    6.7662 F       1  UNL1       -0.1659
     17 F          58.8707   87.0959    7.0656 F       1  UNL1       -0.1659
     18 F          60.2657   89.4600    8.2760 F       1  UNL1       -0.1659
     19 C          64.5754   88.4095   14.5795 C.3     1  UNL1        0.0294
     20 C          63.5953   89.5451   14.5883 C.3     1  UNL1        0.0666
     21 S          63.4106   90.3859   13.3600 S.3     1  UNL1       -0.0756
     22 C          65.6739   93.1592   11.8593 C.ar    1  UNL1        0.1680
     23 N          66.0669   93.2154   13.3058 N.ar    1  UNL1       -0.1282
     24 N          65.2670   92.1833   14.0440 N.ar    1  UNL1       -0.1221
     25 C          64.3794   91.4893   13.0537 C.ar    1  UNL1        0.1932
     26 N          64.6309   92.0924   11.7035 N.ar    1  UNL1       -0.2884
     27 C          63.9576   91.6979   10.4225 C.3     1  UNL1        0.1340
     28 C          67.9216   92.1473   10.1495 C.3     1  UNL1        0.0522
     29 C          67.3505   93.5129    9.9065 C.ar    1  UNL1        0.0623
     30 N          67.9034   94.3725    8.8085 N.ar    1  UNL1       -0.2480
     31 C          67.3323   95.7380    8.5655 C.ar    1  UNL1        0.0984
     32 C          66.2084   96.2441    9.4205 C.ar    1  UNL1        0.0208
     33 C          65.6556   95.3844   10.5184 C.ar    1  UNL1        0.0058
     34 C          66.2266   94.0189   10.7614 C.ar    1  UNL1        0.0495
@<TRIPOS>BOND
     1    28    29    1
     2    29    30   ar
     3    30    31   ar
     4    31    32   ar
     5    32    33   ar
     6    33    34   ar
     7    34    22    1
     8    22    23   ar
     9    23    24   ar
    10    24    25   ar
    11    25    21    1
    12    21    20    1
    13    20    19    1
    14    19     1    1
    15     1     2    1
    16     2     3    1
    17     3     4    1
    18     5     4    1
    19     5     6    1
    20     6     7    1
    21     7     9    1
    22     9    10   ar
    23    10    11   ar
    24    11    12   ar
    25    12    15    1
    26    15    16    1
    27    15    17    1
    28    15    18    1
    29    12    13   ar
    30    13    14   ar
    31     5     8    1
    32    25    26   ar
    33    26    27    1
    34    34    29   ar
    35    26    22   ar
    36     8     2    1
    37     7     5    1
    38    14     9   ar
@<TRIPOS>MOLECULE
*****
 34 38 0 0 0
SMALL
GASTEIGER

@<TRIPOS>ATOM
      1 C          65.0714   84.8556   14.2311 C.3     1  UNL1        0.0730
      2 N          64.3997   85.8869   15.0886 N.3     1  UNL1       -0.2726
      3 C          63.6043   85.6178   16.3316 C.3     1  UNL1        0.0721
      4 C          63.1185   86.9330   16.8647 C.3     1  UNL1        0.0190
      5 C          63.6136   88.0149   15.9513 C.3     1  UNL1        0.0201
      6 C          62.9973   89.1536   16.7086 C.3     1  UNL1        0.0061
      7 C          63.7927   89.4227   15.4656 C.3     1  UNL1        0.0237
      8 C          64.4054   87.3684   14.8536 C.3     1  UNL1        0.0724
      9 C          64.3553   90.3909   14.4675 C.ar    1  UNL1       -0.0225
     10 C          65.5644   91.2080   14.8145 C.ar    1  UNL1       -0.0043
     11 C          66.1270   92.1761   13.8164 C.ar    1  UNL1        0.0035
     12 C          65.4805   92.3272   12.4714 C.ar    1  UNL1        0.0714
     13 C          64.2713   91.5101   12.1244 C.ar    1  UNL1        0.0035
     14 C          63.7087   90.5420   13.1225 C.ar    1  UNL1       -0.0043
     15 C          66.0431   93.2953   11.4734 C.3     1  UNL1        0.4186
     16 F          66.6057   94.2635   10.4752 F       1  UNL1       -0.1659
     17 F          66.4564   94.2069   12.5906 F       1  UNL1       -0.1659
     18 F          65.6297   92.3838   10.3561 F       1  UNL1       -0.1659
     19 C          64.3395   83.6018   13.8538 C.3     1  UNL1        0.0294
     20 C          64.6524   82.9114   12.5594 C.3     1  UNL1        0.0666
     21 S          63.5815   82.7388   11.5234 S.3     1  UNL1       -0.0756
     22 C          62.4399   85.9371    9.6436 C.ar    1  UNL1        0.1680
     23 N          63.1669   85.2048    8.5549 N.ar    1  UNL1       -0.1282
     24 N          63.6830   83.9176    9.1265 N.ar    1  UNL1       -0.1221
     25 C          63.2750   83.8543   10.5686 C.ar    1  UNL1        0.1932
     26 N          62.5068   85.1024   10.8882 N.ar    1  UNL1       -0.2884
     27 C          61.9102   85.4540   12.2188 C.3     1  UNL1        0.1340
     28 C          59.9404   86.1959    8.0050 C.3     1  UNL1        0.0522
     29 C          60.5150   87.3993    8.6918 C.ar    1  UNL1        0.0623
     30 N          59.8397   88.7322    8.5592 N.ar    1  UNL1       -0.2480
     31 C          60.4143   89.9356    9.2460 C.ar    1  UNL1        0.0984
     32 C          61.6641   89.8062   10.0653 C.ar    1  UNL1        0.0208
     33 C          62.3393   88.4734   10.1979 C.ar    1  UNL1        0.0058
     34 C          61.7647   87.2699    9.5111 C.ar    1  UNL1        0.0495
@<TRIPOS>BOND
     1    28    29    1
     2    29    30   ar
     3    30    31   ar
     4    31    32   ar
     5    32    33   ar
     6    33    34   ar
     7    34    22    1
     8    22    23   ar
     9    23    24   ar
    10    24    25   ar
    11    25    21    1
    12    21    20    1
    13    20    19    1
    14    19     1    1
    15     1     2    1
    16     2     3    1
    17     3     4    1
    18     5     4    1
    19     5     6    1
    20     6     7    1
    21     7     9    1
    22     9    10   ar
    23    10    11   ar
    24    11    12   ar
    25    12    15    1
    26    15    16    1
    27    15    17    1
    28    15    18    1
    29    12    13   ar
    30    13    14   ar
    31     5     8    1
    32    25    26   ar
    33    26    27    1
    34    34    29   ar
    35    26    22   ar
    36     8     2    1
    37     7     5    1
    38    14     9   ar
@<TRIPOS>MOLECULE
*****
 34 38 0 0 0
SMALL
GASTEIGER

@<TRIPOS>ATOM
      1 C          64.0777   85.2696   15.9647 C.3     1  UNL1        0.0730
      2 N          63.9617   84.3326   14.7990 N.3     1  UNL1       -0.2726
      3 C          64.4144   82.9029   14.7686 C.3     1  UNL1        0.0721
      4 C          64.1051   82.3477   13.4099 C.3     1  UNL1        0.0190
      5 C          63.4612   83.4342   12.6006 C.3     1  UNL1        0.0201
      6 C          63.2785   82.6160   11.3568 C.3     1  UNL1        0.0061
      7 C          62.8258   84.0458   11.3873 C.3     1  UNL1        0.0237
      8 C          63.3725   84.6610   13.4592 C.3     1  UNL1        0.0724
      9 C          62.1975   85.2243   10.7043 C.ar    1  UNL1       -0.0225
     10 C          61.3336   86.1704   11.4844 C.ar    1  UNL1       -0.0043
     11 C          60.7054   87.3489   10.8015 C.ar    1  UNL1        0.0035
     12 C          60.9411   87.5813    9.3385 C.ar    1  UNL1        0.0714
     13 C          61.8049   86.6351    8.5584 C.ar    1  UNL1        0.0035
     14 C          62.4332   85.4566    9.2413 C.ar    1  UNL1       -0.0043
     15 C          60.3128   88.7598    8.6556 C.3     1  UNL1        0.4186
     16 F          59.6846   89.9384    7.9726 F       1  UNL1       -0.1659
     17 F          60.0053   87.9044    7.4624 F       1  UNL1       -0.1659
     18 F          60.6203   89.6152    9.8488 F       1  UNL1       -0.1659
     19 C          62.9691   86.2346   16.2645 C.3     1  UNL1        0.0294
     20 C          63.2586   87.4990   17.0178 C.3     1  UNL1        0.0666
     21 S          62.5729   88.7759   16.6315 S.3     1  UNL1       -0.0756
     22 C          64.7057   91.2665   14.5546 C.ar    1  UNL1        0.1680
     23 N          64.4837   92.0535   15.8122 N.ar    1  UNL1       -0.1282
     24 N          63.6577   91.2163   16.7432 N.ar    1  UNL1       -0.1221
     25 C          63.3693   89.9119   16.0611 C.ar    1  UNL1        0.1932
     26 N          64.0169   89.9429   14.7085 N.ar    1  UNL1       -0.2884
     27 C          63.9820   88.8433   13.6888 C.3     1  UNL1        0.1340
     28 C          67.6796   91.6181   14.7334 C.3     1  UNL1        0.0522
     29 C          66.9674   91.8988   13.4435 C.ar    1  UNL1        0.0623
     30 N          67.7423   92.3553   12.2429 N.ar    1  UNL1       -0.2480
     31 C          67.0301   92.6359   10.9530 C.ar    1  UNL1        0.0984
     32 C          65.5430   92.4602   10.8635 C.ar    1  UNL1        0.0208
     33 C          64.7683   92.0037   12.0641 C.ar    1  UNL1        0.0058
     34 C          65.4805   91.7230   13.3540 C.ar    1  UNL1        0.0495
@<TRIPOS>BOND
     1    28    29    1
     2    29    30   ar
     3    30    31   ar
     4    31    32   ar
     5    32    33   ar
     6    33    34   ar
     7    34    22    1
     8    22    23   ar
     9    23    24   ar
    10    24    25   ar
    11    25    21    1
    12    21    20    1
    13    20    19    1
    14    19     1    1
    15     1     2    1
    16     2     3    1
    17     3     4    1
    18     5     4    1
    19     5     6    1
    20     6     7    1
    21     7     9    1
    22     9    10   ar
    23    10    11   ar
    24    11    12   ar
    25    12    15    1
    26    15    16    1
    27    15    17    1
    28    15    18    1
    29    12    13   ar
    30    13    14   ar
    31     5     8    1
    32    25    26   ar
    33    26    27    1
    34    34    29   ar
    35    26    22   ar
    36     8     2    1
    37     7     5    1
    38    14     9   ar
@<TRIPOS>MOLECULE
*****
 34 38 0 0 0
SMALL
GASTEIGER

@<TRIPOS>ATOM
      1 C          63.5020   90.1282   16.0766 C.3     1  UNL1        0.0730
      2 N          63.9938   90.7666   14.8115 N.3     1  UNL1       -0.2726
      3 C          65.0667   91.8099   14.7097 C.3     1  UNL1        0.0721
      4 C          65.2351   92.1618   13.2613 C.3     1  UNL1        0.0190
      5 C          64.2662   91.3360   12.4680 C.3     1  UNL1        0.0201
      6 C          64.6541   91.8845   11.1268 C.3     1  UNL1        0.0061
      7 C          63.5812   90.8412   11.2286 C.3     1  UNL1        0.0237
      8 C          63.4991   90.4737   13.4261 C.3     1  UNL1        0.0724
      9 C          62.5662   89.9531   10.5719 C.ar    1  UNL1       -0.0225
     10 C          62.8909   88.5134   10.3040 C.ar    1  UNL1       -0.0043
     11 C          61.8759   87.6253    9.6473 C.ar    1  UNL1        0.0035
     12 C          60.5364   88.1771    9.2585 C.ar    1  UNL1        0.0714
     13 C          60.2118   89.6168    9.5264 C.ar    1  UNL1        0.0035
     14 C          61.2267   90.5049   10.1831 C.ar    1  UNL1       -0.0043
     15 C          59.5214   87.2890    8.6018 C.3     1  UNL1        0.4186
     16 F          58.5064   86.4010    7.9451 F       1  UNL1       -0.1659
     17 F          60.1686   86.0882    9.2255 F       1  UNL1       -0.1659
     18 F          58.8743   88.4899    7.9781 F       1  UNL1       -0.1659
     19 C          63.0839   88.6877   16.0765 C.3     1  UNL1        0.0294
     20 C          63.0040   87.9297   17.3684 C.3     1  UNL1        0.0666
     21 S          63.2420   86.4488   17.3851 S.3     1  UNL1       -0.0756
     22 C          62.8441   84.4560   14.0781 C.ar    1  UNL1        0.1680
     23 N          61.5288   84.1787   14.7437 N.ar    1  UNL1       -0.1282
     24 N          61.5177   84.8914   16.0635 N.ar    1  UNL1       -0.1221
     25 C          62.8262   85.6092   16.2136 C.ar    1  UNL1        0.1932
     26 N          63.6460   85.3402   14.9866 N.ar    1  UNL1       -0.2884
     27 C          65.0254   85.8634   14.7155 C.3     1  UNL1        0.1340
     28 C          64.1168   81.7484   13.8567 C.3     1  UNL1        0.0522
     29 C          63.9172   82.5860   12.6285 C.ar    1  UNL1        0.0623
     30 N          64.3539   82.0697   11.2895 N.ar    1  UNL1       -0.2480
     31 C          64.1543   82.9073   10.0613 C.ar    1  UNL1        0.0984
     32 C          63.5180   84.2612   10.1719 C.ar    1  UNL1        0.0208
     33 C          63.0812   84.7774   11.5109 C.ar    1  UNL1        0.0058
     34 C          63.2808   83.9398   12.7391 C.ar    1  UNL1        0.0495
@<TRIPOS>BOND
     1    28    29    1
     2    29    30   ar
     3    30    31   ar
     4    31    32   ar
     5    32    33   ar
     6    33    34   ar
     7    34    22    1
     8    22    23   ar
     9    23    24   ar
    10    24    25   ar
    11    25    21    1
    12    21    20    1
    13    20    19    1
    14    19     1    1
    15     1     2    1
    16     2     3    1
    17     3     4    1
    18     5     4    1
    19     5     6    1
    20     6     7    1
    21     7     9    1
    22     9    10   ar
    23    10    11   ar
    24    11    12   ar
    25    12    15    1
    26    15    16    1
    27    15    17    1
    28    15    18    1
    29    12    13   ar
    30    13    14   ar
    31     5     8    1
    32    25    26   ar
    33    26    27    1
    34    34    29   ar
    35    26    22   ar
    36     8     2    1
    37     7     5    1
    38    14     9   ar
@<TRIPOS>MOLECULE
*****
 34 38 0 0 0
SMALL
GASTEIGER

@<TRIPOS>ATOM
      1 C          62.3473   84.0612   15.7425 C.3     1  UNL1        0.0730
      2 N          63.0320   83.6050   14.4883 N.3     1  UNL1       -0.2726
      3 C          64.0608   82.5178   14.3909 C.3     1  UNL1        0.0721
      4 C          64.4727   82.3968   12.9537 C.3     1  UNL1        0.0190
      5 C          63.6984   83.4092   12.1627 C.3     1  UNL1        0.0201
      6 C          64.2984   83.0613   10.8327 C.3     1  UNL1        0.0061
      7 C          63.2696   84.1485   10.9300 C.3     1  UNL1        0.0237
      8 C          62.8080   84.1559   13.1112 C.3     1  UNL1        0.0724
      9 C          62.4280   85.2030   10.2746 C.ar    1  UNL1       -0.0225
     10 C          62.3697   85.2934    8.7784 C.ar    1  UNL1       -0.0043
     11 C          61.5281   86.3479    8.1229 C.ar    1  UNL1        0.0035
     12 C          60.7448   87.3121    8.9636 C.ar    1  UNL1        0.0714
     13 C          60.8030   87.2217   10.4598 C.ar    1  UNL1        0.0035
     14 C          61.6446   86.1672   11.1153 C.ar    1  UNL1       -0.0043
     15 C          59.9032   88.3666    8.3082 C.3     1  UNL1        0.4186
     16 F          59.0615   89.4211    7.6526 F       1  UNL1       -0.1659
     17 F          60.7071   89.4328    8.9913 F       1  UNL1       -0.1659
     18 F          59.0992   87.3003    7.6250 F       1  UNL1       -0.1659
     19 C          62.1462   85.5257   15.9970 C.3     1  UNL1        0.0294
     20 C          63.2997   86.3748   16.4426 C.3     1  UNL1        0.0666
     21 S          63.0459   87.6837   17.1300 S.3     1  UNL1       -0.0756
     22 C          63.9711   90.5731   14.7090 C.ar    1  UNL1        0.1680
     23 N          63.4566   91.3392   15.8916 N.ar    1  UNL1       -0.1282
     24 N          63.0473   90.3501   16.9424 N.ar    1  UNL1       -0.1221
     25 C          63.3090   88.9726   16.4093 C.ar    1  UNL1        0.1932
     26 N          63.8799   89.1104   15.0291 N.ar    1  UNL1       -0.2884
     27 C          64.2880   87.9834   14.1272 C.3     1  UNL1        0.1340
     28 C          62.3838   90.2929   12.1789 C.3     1  UNL1        0.0522
     29 C          63.6927   91.0255   12.1659 C.ar    1  UNL1        0.0623
     30 N          64.2079   91.6179   10.8877 N.ar    1  UNL1       -0.2480
     31 C          65.5168   92.3504   10.8748 C.ar    1  UNL1        0.0984
     32 C          66.3106   92.4905   12.1399 C.ar    1  UNL1        0.0208
     33 C          65.7953   91.8981   13.4180 C.ar    1  UNL1        0.0058
     34 C          64.4864   91.1655   13.4309 C.ar    1  UNL1        0.0495
@<TRIPOS>BOND
     1    28    29    1
     2    29    30   ar
     3    30    31   ar
     4    31    32   ar
     5    32    33   ar
     6    33    34   ar
     7    34    22    1
     8    22    23   ar
     9    23    24   ar
    10    24    25   ar
    11    25    21    1
    12    21    20    1
    13    20    19    1
    14    19     1    1
    15     1     2    1
    16     2     3    1
    17     3     4    1
    18     5     4    1
    19     5     6    1
    20     6     7    1
    21     7     9    1
    22     9    10   ar
    23    10    11   ar
    24    11    12   ar
    25    12    15    1
    26    15    16    1
    27    15    17    1
    28    15    18    1
    29    12    13   ar
    30    13    14   ar
    31     5     8    1
    32    25    26   ar
    33    26    27    1
    34    34    29   ar
    35    26    22   ar
    36     8     2    1
    37     7     5    1
    38    14     9   ar
@<TRIPOS>MOLECULE
*****
 34 38 0 0 0
SMALL
GASTEIGER

@<TRIPOS>ATOM
      1 C          63.1200   85.4806    8.6512 C.3     1  UNL1        0.0730
      2 N          62.0848   86.5447    8.8658 N.3     1  UNL1       -0.2726
      3 C          60.6471   86.4739    8.4443 C.3     1  UNL1        0.0721
      4 C          59.9794   87.7519    8.8576 C.3     1  UNL1        0.0190
      5 C          61.0045   88.6126    9.5347 C.3     1  UNL1        0.0201
      6 C          60.0822   89.7608    9.8189 C.3     1  UNL1        0.0061
      7 C          61.5200   89.8317   10.2405 C.3     1  UNL1        0.0237
      8 C          62.3058   87.8665    9.5397 C.3     1  UNL1        0.0724
      9 C          62.6477   90.5764   10.8913 C.ar    1  UNL1       -0.0225
     10 C          62.8989   90.4213   12.3620 C.ar    1  UNL1       -0.0043
     11 C          64.0266   91.1660   13.0129 C.ar    1  UNL1        0.0035
     12 C          64.9031   92.0658   12.1931 C.ar    1  UNL1        0.0714
     13 C          64.6519   92.2209   10.7224 C.ar    1  UNL1        0.0035
     14 C          63.5242   91.4762   10.0715 C.ar    1  UNL1       -0.0043
     15 C          66.0308   92.8105   12.8439 C.3     1  UNL1        0.4186
     16 F          67.1586   93.5552   13.4948 F       1  UNL1       -0.1659
     17 F          65.7168   94.0161   12.0086 F       1  UNL1       -0.1659
     18 F          66.3449   91.6048   13.6793 F       1  UNL1       -0.1659
     19 C          62.9036   84.1019    9.2011 C.3     1  UNL1        0.0294
     20 C          63.9944   83.4235    9.9757 C.3     1  UNL1        0.0666
     21 S          63.7103   82.8638   11.3380 S.3     1  UNL1       -0.0756
     22 C          64.1517   85.3402   14.2940 C.ar    1  UNL1        0.1680
     23 N          65.2172   84.3299   14.6007 N.ar    1  UNL1       -0.1282
     24 N          65.1815   83.2792   13.5307 N.ar    1  UNL1       -0.1221
     25 C          64.0940   83.6402   12.5627 C.ar    1  UNL1        0.1932
     26 N          63.4575   84.9139   13.0344 N.ar    1  UNL1       -0.2884
     27 C          62.3256   85.6348   12.3643 C.3     1  UNL1        0.1340
     28 C          62.4799   85.1044   16.7738 C.3     1  UNL1        0.0522
     29 C          62.9999   86.4442   16.3445 C.ar    1  UNL1        0.0623
     30 N          62.6840   87.6662   17.1551 N.ar    1  UNL1       -0.2480
     31 C          63.2041   89.0060   16.7258 C.ar    1  UNL1        0.0984
     32 C          64.0400   89.1240   15.4858 C.ar    1  UNL1        0.0208
     33 C          64.3559   87.9020   14.6753 C.ar    1  UNL1        0.0058
     34 C          63.8358   86.5622   15.1046 C.ar    1  UNL1        0.0495
@<TRIPOS>BOND
     1    28    29    1
     2    29    30   ar
     3    30    31   ar
     4    31    32   ar
     5    32    33   ar
     6    33    34   ar
     7    34    22    1
     8    22    23   ar
     9    23    24   ar
    10    24    25   ar
    11    25    21    1
    12    21    20    1
    13    20    19    1
    14    19     1    1
    15     1     2    1
    16     2     3    1
    17     3     4    1
    18     5     4    1
    19     5     6    1
    20     6     7    1
    21     7     9    1
    22     9    10   ar
    23    10    11   ar
    24    11    12   ar
    25    12    15    1
    26    15    16    1
    27    15    17    1
    28    15    18    1
    29    12    13   ar
    30    13    14   ar
    31     5     8    1
    32    25    26   ar
    33    26    27    1
    34    34    29   ar
    35    26    22   ar
    36     8     2    1
    37     7     5    1
    38    14     9   ar
@<TRIPOS>MOLECULE
*****
 34 38 0 0 0
SMALL
GASTEIGER

@<TRIPOS>ATOM
      1 C          61.9580   90.1379   12.4501 C.3     1  UNL1        0.0730
      2 N          61.7170   89.3065   11.2251 N.3     1  UNL1       -0.2726
      3 C          61.1896   89.8038    9.9118 C.3     1  UNL1        0.0721
      4 C          61.1078   88.6365    8.9734 C.3     1  UNL1        0.0190
      5 C          61.5846   87.4179    9.7066 C.3     1  UNL1        0.0201
      6 C          61.3948   86.4637    8.5649 C.3     1  UNL1        0.0061
      7 C          61.9222   85.9664    9.8781 C.3     1  UNL1        0.0237
      8 C          61.9612   87.8320   11.0982 C.3     1  UNL1        0.0724
      9 C          62.4217   84.8414   10.7354 C.ar    1  UNL1       -0.0225
     10 C          63.1893   83.7109   10.1168 C.ar    1  UNL1       -0.0043
     11 C          63.6887   82.5859   10.9740 C.ar    1  UNL1        0.0035
     12 C          63.4205   82.5914   12.4499 C.ar    1  UNL1        0.0714
     13 C          62.6528   83.7220   13.0684 C.ar    1  UNL1        0.0035
     14 C          62.1534   84.8470   12.2112 C.ar    1  UNL1       -0.0043
     15 C          63.9199   81.4664   13.3071 C.3     1  UNL1        0.4186
     16 F          64.4194   80.3413   14.1644 F       1  UNL1       -0.1659
     17 F          63.1924   80.4824   12.4396 F       1  UNL1       -0.1659
     18 F          64.6474   82.4503   14.1746 F       1  UNL1       -0.1659
     19 C          63.0828   89.7936   13.3808 C.3     1  UNL1        0.0294
     20 C          63.7300   90.8672   14.2047 C.3     1  UNL1        0.0666
     21 S          65.2069   91.1066   14.0982 S.3     1  UNL1       -0.0756
     22 C          66.1928   94.0845   11.8121 C.ar    1  UNL1        0.1680
     23 N          66.8202   94.4959   13.1110 N.ar    1  UNL1       -0.1282
     24 N          66.5273   93.4305   14.1254 N.ar    1  UNL1       -0.1221
     25 C          65.7188   92.3605   13.4536 C.ar    1  UNL1        0.1932
     26 N          65.5120   92.7646   12.0239 N.ar    1  UNL1       -0.2884
     27 C          64.7570   91.9857   10.9879 C.3     1  UNL1        0.1340
     28 C          67.9808   93.1791    9.5799 C.3     1  UNL1        0.0522
     29 C          67.1321   94.4044    9.4111 C.ar    1  UNL1        0.0623
     30 N          67.1775   95.1769    8.1261 N.ar    1  UNL1       -0.2480
     31 C          66.3289   96.4022    7.9574 C.ar    1  UNL1        0.0984
     32 C          65.4348   96.8549    9.0735 C.ar    1  UNL1        0.0208
     33 C          65.3894   96.0823   10.3584 C.ar    1  UNL1        0.0058
     34 C          66.2381   94.8571   10.5272 C.ar    1  UNL1        0.0495
@<TRIPOS>BOND
     1    28    29    1
     2    29    30   ar
     3    30    31   ar
     4    31    32   ar
     5    32    33   ar
     6    33    34   ar
     7    34    22    1
     8    22    23   ar
     9    23    24   ar
    10    24    25   ar
    11    25    21    1
    12    21    20    1
    13    20    19    1
    14    19     1    1
    15     1     2    1
    16     2     3    1
    17     3     4    1
    18     5     4    1
    19     5     6    1
    20     6     7    1
    21     7     9    1
    22     9    10   ar
    23    10    11   ar
    24    11    12   ar
    25    12    15    1
    26    15    16    1
    27    15    17    1
    28    15    18    1
    29    12    13   ar
    30    13    14   ar
    31     5     8    1
    32    25    26   ar
    33    26    27    1
    34    34    29   ar
    35    26    22   ar
    36     8     2    1
    37     7     5    1
    38    14     9   ar
@<TRIPOS>MOLECULE
*****
 34 38 0 0 0
SMALL
GASTEIGER

@<TRIPOS>ATOM
      1 C          62.5757   89.6506   16.4233 C.3     1  UNL1        0.0730
      2 N          63.2801   90.2992   15.2686 N.3     1  UNL1       -0.2726
      3 C          64.4192   91.2704   15.3637 C.3     1  UNL1        0.0721
      4 C          64.8121   91.6618   13.9700 C.3     1  UNL1        0.0190
      5 C          63.9158   90.9324   13.0136 C.3     1  UNL1        0.0201
      6 C          64.5227   91.5011   11.7652 C.3     1  UNL1        0.0061
      7 C          63.3835   90.5299   11.6702 C.3     1  UNL1        0.0237
      8 C          62.9690   90.0903   13.8162 C.3     1  UNL1        0.0724
      9 C          62.4186   89.7367   10.8397 C.ar    1  UNL1       -0.0225
     10 C          62.7630   88.3383   10.4204 C.ar    1  UNL1       -0.0043
     11 C          61.7980   87.5452    9.5899 C.ar    1  UNL1        0.0035
     12 C          60.4886   88.1504    9.1788 C.ar    1  UNL1        0.0714
     13 C          60.1441   89.5488    9.5982 C.ar    1  UNL1        0.0035
     14 C          61.1091   90.3420   10.4286 C.ar    1  UNL1       -0.0043
     15 C          59.5236   87.3573    8.3484 C.3     1  UNL1        0.4186
     16 F          58.5586   86.5640    7.5179 F       1  UNL1       -0.1659
     17 F          59.0708   88.6169    7.6715 F       1  UNL1       -0.1659
     18 F          59.9764   86.0976    9.0253 F       1  UNL1       -0.1659
     19 C          63.1358   88.4024   17.0382 C.3     1  UNL1        0.0294
     20 C          63.8567   87.4031   16.1828 C.3     1  UNL1        0.0666
     21 S          63.5059   85.9475   16.2723 S.3     1  UNL1       -0.0756
     22 C          63.9825   83.2101   13.5621 C.ar    1  UNL1        0.1680
     23 N          65.3284   83.8721   13.5453 N.ar    1  UNL1       -0.1282
     24 N          65.3137   84.9781   14.5585 N.ar    1  UNL1       -0.1221
     25 C          63.9587   84.9996   15.2015 C.ar    1  UNL1        0.1932
     26 N          63.1359   83.9070   14.5858 N.ar    1  UNL1       -0.2884
     27 C          61.7160   83.5702   14.9327 C.3     1  UNL1        0.1340
     28 C          64.0060   83.4693   10.5735 C.3     1  UNL1        0.0522
     29 C          63.5695   82.1838   11.2114 C.ar    1  UNL1        0.0623
     30 N          63.1447   81.0279   10.3549 N.ar    1  UNL1       -0.2480
     31 C          62.7083   79.7424   10.9928 C.ar    1  UNL1        0.0984
     32 C          62.6965   79.6127   12.4872 C.ar    1  UNL1        0.0208
     33 C          63.1213   80.7686   13.3436 C.ar    1  UNL1        0.0058
     34 C          63.5577   82.0541   12.7057 C.ar    1  UNL1        0.0495
@<TRIPOS>BOND
     1    28    29    1
     2    29    30   ar
     3    30    31   ar
     4    31    32   ar
     5    32    33   ar
     6    33    34   ar
     7    34    22    1
     8    22    23   ar
     9    23    24   ar
    10    24    25   ar
    11    25    21    1
    12    21    20    1
    13    20    19    1
    14    19     1    1
    15     1     2    1
    16     2     3    1
    17     3     4    1
    18     5     4    1
    19     5     6    1
    20     6     7    1
    21     7     9    1
    22     9    10   ar
    23    10    11   ar
    24    11    12   ar
    25    12    15    1
    26    15    16    1
    27    15    17    1
    28    15    18    1
    29    12    13   ar
    30    13    14   ar
    31     5     8    1
    32    25    26   ar
    33    26    27    1
    34    34    29   ar
    35    26    22   ar
    36     8     2    1
    37     7     5    1
    38    14     9   ar
