@<TRIPOS>MOLECULE
*****
 29 32 0 0 0
SMALL
GASTEIGER

@<TRIPOS>ATOM
      1 C          71.4874   77.5283   12.3106 C.ar    1  UNL1        0.0515
      2 C          70.9432   77.3339   13.6948 C.ar    1  UNL1        0.0160
      3 C          71.0781   76.0032   14.3737 C.ar    1  UNL1        0.0175
      4 C          71.7573   74.8669   13.6685 C.ar    1  UNL1        0.0718
      5 C          72.3016   75.0613   12.2844 C.ar    1  UNL1        0.0730
      6 CL         72.9808   73.9249   11.5791 Cl      1  UNL1       -0.0809
      7 C          72.1666   76.3920   11.6054 C.ar    1  UNL1        0.0273
      8 N          71.8923   73.5362   14.3475 N.am    1  UNL1       -0.2002
      9 C          72.7543   73.2372   15.5381 C.2     1  UNL1        0.2590
     10 O          73.6327   74.2165   16.2588 O.2     1  UNL1       -0.2691
     11 C          72.5837   71.7870   15.8815 C.ar    1  UNL1        0.0609
     12 C          73.1843   70.9333   16.9587 C.ar    1  UNL1        0.0048
     13 C          72.8175   69.4822   17.0575 C.ar    1  UNL1        0.0025
     14 C          71.8500   68.8849   16.0791 C.ar    1  UNL1        0.0298
     15 C          71.2494   69.7387   15.0019 C.ar    1  UNL1        0.1446
     16 F          70.2820   69.1414   14.0235 F       1  UNL1       -0.2040
     17 C          71.6163   71.1897   14.9031 C.ar    1  UNL1        0.0861
     18 C          71.1890   72.2708   13.9551 C.2     1  UNL1        0.2611
     19 O          70.2272   72.1139   12.8147 O.2     1  UNL1       -0.2691
     20 C          72.3671   79.2879   10.6136 C.2     1  UNL1        0.2839
     21 O          73.5168   78.3861   10.2744 O.2     1  UNL1       -0.2665
     22 N          71.3525   78.8590   11.6317 N.am    1  UNL1       -0.2778
     23 H          70.5979   79.4509   11.8543 H       1  UNL1        0.1553
     24 C          71.9397   79.7749    7.4152 C.3     1  UNL1        0.0345
     25 C          72.0357   80.8424    8.4644 C.ar    1  UNL1        0.0204
     26 C          71.9521   82.3213    8.2279 C.ar    1  UNL1        0.0396
     27 C          72.0969   83.0115    9.5518 C.ar    1  UNL1        0.1795
     28 O          72.2700   81.9592   10.6066 O.2     1  UNL1       -0.4461
     29 C          72.2322   80.6186    9.9346 C.ar    1  UNL1        0.1948
@<TRIPOS>BOND
     1    24    25    1
     2    25    26   ar
     3    26    27   ar
     4    27    28   ar
     5    28    29   ar
     6    29    20    1
     7    20    21    2
     8    20    22   am
     9    22     1    1
    10     1     2   ar
    11     2     3   ar
    12     3     4   ar
    13     4     8    1
    14     8     9   am
    15     9    10    2
    16     9    11    1
    17    11    12   ar
    18    12    13   ar
    19    13    14   ar
    20    14    15   ar
    21    15    16    1
    22    15    17   ar
    23    17    18    1
    24    18    19    2
    25     4     5   ar
    26     5     6    1
    27     5     7   ar
    28    29    25   ar
    29     7     1   ar
    30    18     8   am
    31    17    11   ar
    32    22    23    1
@<TRIPOS>MOLECULE
*****
 29 32 0 0 0
SMALL
GASTEIGER

@<TRIPOS>ATOM
      1 C          64.3960   86.8741   14.5290 C.ar    1  UNL1        0.0515
      2 C          65.1412   85.6388   14.9394 C.ar    1  UNL1        0.0160
      3 C          64.8593   84.3320   14.2591 C.ar    1  UNL1        0.0175
      4 C          63.8321   84.2606   13.1684 C.ar    1  UNL1        0.0718
      5 C          63.0868   85.4959   12.7580 C.ar    1  UNL1        0.0730
      6 CL         62.0596   85.4245   11.6672 Cl      1  UNL1       -0.0809
      7 C          63.3688   86.8027   13.4383 C.ar    1  UNL1        0.0273
      8 N          63.5501   82.9538   12.4880 N.am    1  UNL1       -0.2002
      9 C          63.6800   82.6783   11.0193 C.2     1  UNL1        0.2590
     10 O          64.1146   83.6613    9.9729 O.2     1  UNL1       -0.2691
     11 C          63.2990   81.2473   10.7805 C.ar    1  UNL1        0.0609
     12 C          63.2375   80.4201    9.5308 C.ar    1  UNL1        0.0048
     13 C          62.8106   78.9840    9.6022 C.ar    1  UNL1        0.0025
     14 C          62.4453   78.3750   10.9234 C.ar    1  UNL1        0.0298
     15 C          62.5067   79.2021   12.1732 C.ar    1  UNL1        0.1446
     16 F          62.1414   78.5931   13.4944 F       1  UNL1       -0.2040
     17 C          62.9336   80.6383   12.1017 C.ar    1  UNL1        0.0861
     18 C          63.0888   81.6930   13.1570 C.2     1  UNL1        0.2611
     19 O          62.8285   81.5176   14.6238 O.2     1  UNL1       -0.2691
     20 C          64.4700   89.4705   14.4720 C.2     1  UNL1        0.2839
     21 O          63.9801   89.4534   13.0543 O.2     1  UNL1       -0.2665
     22 N          64.6779   88.1809   15.2093 N.am    1  UNL1       -0.2778
     23 H          64.9994   88.1922   16.1398 H       1  UNL1        0.1553
     24 C          67.1530   91.2896   14.0952 C.3     1  UNL1        0.0345
     25 C          65.9853   91.6135   14.9791 C.ar    1  UNL1        0.0204
     26 C          65.8456   92.8303   15.8450 C.ar    1  UNL1        0.0396
     27 C          64.5261   92.7462   16.5534 C.ar    1  UNL1        0.1795
     28 O          63.8502   91.4774   16.1253 O.2     1  UNL1       -0.4461
     29 C          64.7520   90.7773   15.1523 C.ar    1  UNL1        0.1948
@<TRIPOS>BOND
     1    24    25    1
     2    25    26   ar
     3    26    27   ar
     4    27    28   ar
     5    28    29   ar
     6    29    20    1
     7    20    21    2
     8    20    22   am
     9    22     1    1
    10     1     2   ar
    11     2     3   ar
    12     3     4   ar
    13     4     8    1
    14     8     9   am
    15     9    10    2
    16     9    11    1
    17    11    12   ar
    18    12    13   ar
    19    13    14   ar
    20    14    15   ar
    21    15    16    1
    22    15    17   ar
    23    17    18    1
    24    18    19    2
    25     4     5   ar
    26     5     6    1
    27     5     7   ar
    28    29    25   ar
    29     7     1   ar
    30    18     8   am
    31    17    11   ar
    32    22    23    1
@<TRIPOS>MOLECULE
*****
 29 32 0 0 0
SMALL
GASTEIGER

@<TRIPOS>ATOM
      1 C          71.4577   77.7290   12.2027 C.ar    1  UNL1        0.0515
      2 C          70.7612   77.5205   13.5148 C.ar    1  UNL1        0.0160
      3 C          70.8600   76.1973   14.2143 C.ar    1  UNL1        0.0175
      4 C          71.6552   75.0826   13.6018 C.ar    1  UNL1        0.0718
      5 C          72.3516   75.2912   12.2898 C.ar    1  UNL1        0.0730
      6 CL         73.1469   74.1765   11.6772 Cl      1  UNL1       -0.0809
      7 C          72.2528   76.6144   11.5903 C.ar    1  UNL1        0.0273
      8 N          71.7540   73.7594   14.3014 N.am    1  UNL1       -0.2002
      9 C          71.1778   72.4615   13.8182 C.2     1  UNL1        0.2590
     10 O          70.4017   72.2589   12.5507 O.2     1  UNL1       -0.2691
     11 C          71.5140   71.4017   14.8251 C.ar    1  UNL1        0.0609
     12 C          71.2076   69.9343   14.8782 C.ar    1  UNL1        0.0048
     13 C          71.6851   69.1099   16.0367 C.ar    1  UNL1        0.0025
     14 C          72.4690   69.7528   17.1422 C.ar    1  UNL1        0.0298
     15 C          72.7754   71.2202   17.0892 C.ar    1  UNL1        0.1446
     16 F          73.5594   71.8632   18.1946 F       1  UNL1       -0.2040
     17 C          72.2979   72.0446   15.9306 C.ar    1  UNL1        0.0861
     18 C          72.4462   73.5018   15.6069 C.2     1  UNL1        0.2611
     19 O          73.1613   74.5221   16.4421 O.2     1  UNL1       -0.2691
     20 C          72.4233   79.4683   10.5318 C.2     1  UNL1        0.2839
     21 O          73.5867   78.5612   10.2598 O.2     1  UNL1       -0.2665
     22 N          71.3589   79.0523   11.5032 N.am    1  UNL1       -0.2778
     23 H          70.5954   79.6476   11.6817 H       1  UNL1        0.1553
     24 C          71.9112   79.9173    7.3402 C.3     1  UNL1        0.0345
     25 C          72.0892   80.9979    8.3652 C.ar    1  UNL1        0.0204
     26 C          72.0630   82.4746    8.1032 C.ar    1  UNL1        0.0396
     27 C          72.2822   83.1809    9.4082 C.ar    1  UNL1        0.1795
     28 O          72.4438   82.1407   10.4768 O.2     1  UNL1       -0.4461
     29 C          72.3246   80.7915    9.8322 C.ar    1  UNL1        0.1948
@<TRIPOS>BOND
     1    24    25    1
     2    25    26   ar
     3    26    27   ar
     4    27    28   ar
     5    28    29   ar
     6    29    20    1
     7    20    21    2
     8    20    22   am
     9    22     1    1
    10     1     2   ar
    11     2     3   ar
    12     3     4   ar
    13     4     8    1
    14     8     9   am
    15     9    10    2
    16     9    11    1
    17    11    12   ar
    18    12    13   ar
    19    13    14   ar
    20    14    15   ar
    21    15    16    1
    22    15    17   ar
    23    17    18    1
    24    18    19    2
    25     4     5   ar
    26     5     6    1
    27     5     7   ar
    28    29    25   ar
    29     7     1   ar
    30    18     8   am
    31    17    11   ar
    32    22    23    1
@<TRIPOS>MOLECULE
*****
 29 32 0 0 0
SMALL
GASTEIGER

@<TRIPOS>ATOM
      1 C          64.2800   91.1598   12.5947 C.ar    1  UNL1        0.0515
      2 C          64.9277   90.4308   13.7344 C.ar    1  UNL1        0.0160
      3 C          64.6222   88.9808   13.9676 C.ar    1  UNL1        0.0175
      4 C          63.6691   88.2599   13.0610 C.ar    1  UNL1        0.0718
      5 C          63.0215   88.9890   11.9213 C.ar    1  UNL1        0.0730
      6 CL         62.0683   88.2681   11.0147 Cl      1  UNL1       -0.0809
      7 C          63.3269   90.4389   11.6882 C.ar    1  UNL1        0.0273
      8 N          63.3637   86.8100   13.2942 N.am    1  UNL1       -0.2002
      9 C          63.2750   86.1312   14.6288 C.2     1  UNL1        0.2590
     10 O          63.4761   86.7831   15.9647 O.2     1  UNL1       -0.2691
     11 C          62.9499   84.6859   14.3931 C.ar    1  UNL1        0.0609
     12 C          62.7415   83.5374   15.3352 C.ar    1  UNL1        0.0048
     13 C          62.4209   82.1746   14.7970 C.ar    1  UNL1        0.0025
     14 C          62.3087   81.9602   13.3166 C.ar    1  UNL1        0.0298
     15 C          62.5170   83.1086   12.3745 C.ar    1  UNL1        0.1446
     16 F          62.4048   82.8942   10.8942 F       1  UNL1       -0.2040
     17 C          62.8376   84.4715   12.9128 C.ar    1  UNL1        0.0861
     18 C          63.0934   85.7843   12.2336 C.2     1  UNL1        0.2611
     19 O          63.0811   86.0284   10.7537 O.2     1  UNL1       -0.2691
     20 C          65.8372   93.0053   11.6361 C.2     1  UNL1        0.2839
     21 O          66.7837   91.9509   11.1436 O.2     1  UNL1       -0.2665
     22 N          64.5854   92.6098   12.3616 N.am    1  UNL1       -0.2778
     23 H          63.9642   93.3018   12.6847 H       1  UNL1        0.1553
     24 C          67.2589   94.2635    8.9817 C.3     1  UNL1        0.0345
     25 C          66.7961   95.0336   10.1828 C.ar    1  UNL1        0.0204
     26 C          66.9055   96.5173   10.3748 C.ar    1  UNL1        0.0396
     27 C          66.3197   96.8559   11.7135 C.ar    1  UNL1        0.1795
     28 O          65.8482   95.5816   12.3489 O.2     1  UNL1       -0.4461
     29 C          66.1426   94.4553   11.4029 C.ar    1  UNL1        0.1948
@<TRIPOS>BOND
     1    24    25    1
     2    25    26   ar
     3    26    27   ar
     4    27    28   ar
     5    28    29   ar
     6    29    20    1
     7    20    21    2
     8    20    22   am
     9    22     1    1
    10     1     2   ar
    11     2     3   ar
    12     3     4   ar
    13     4     8    1
    14     8     9   am
    15     9    10    2
    16     9    11    1
    17    11    12   ar
    18    12    13   ar
    19    13    14   ar
    20    14    15   ar
    21    15    16    1
    22    15    17   ar
    23    17    18    1
    24    18    19    2
    25     4     5   ar
    26     5     6    1
    27     5     7   ar
    28    29    25   ar
    29     7     1   ar
    30    18     8   am
    31    17    11   ar
    32    22    23    1
@<TRIPOS>MOLECULE
*****
 29 32 0 0 0
SMALL
GASTEIGER

@<TRIPOS>ATOM
      1 C          64.2526   91.1458   12.5504 C.ar    1  UNL1        0.0515
      2 C          64.9346   90.3534   13.6259 C.ar    1  UNL1        0.0160
      3 C          64.6165   88.8980   13.8014 C.ar    1  UNL1        0.0175
      4 C          63.6164   88.2351   12.9012 C.ar    1  UNL1        0.0718
      5 C          62.9344   89.0275   11.8256 C.ar    1  UNL1        0.0730
      6 CL         61.9343   88.3646   10.9254 Cl      1  UNL1       -0.0809
      7 C          63.2525   90.4829   11.6502 C.ar    1  UNL1        0.0273
      8 N          63.2984   86.7797   13.0766 N.am    1  UNL1       -0.2002
      9 C          63.0347   85.7959   11.9755 C.2     1  UNL1        0.2590
     10 O          63.0428   86.0947   10.5056 O.2     1  UNL1       -0.2691
     11 C          62.7615   84.4608   12.6023 C.ar    1  UNL1        0.0609
     12 C          62.4386   83.1211   12.0099 C.ar    1  UNL1        0.0048
     13 C          62.2106   81.9401   12.9061 C.ar    1  UNL1        0.0025
     14 C          62.3054   82.0988   14.3947 C.ar    1  UNL1        0.0298
     15 C          62.6283   83.4385   14.9871 C.ar    1  UNL1        0.1446
     16 F          62.7231   83.5972   16.4756 F       1  UNL1       -0.2040
     17 C          62.8563   84.6195   14.0909 C.ar    1  UNL1        0.0861
     18 C          63.1881   86.0527   14.3840 C.2     1  UNL1        0.2611
     19 O          63.3766   86.6533   15.7455 O.2     1  UNL1       -0.2691
     20 C          65.7674   93.0157   11.5713 C.2     1  UNL1        0.2839
     21 O          66.6461   91.9750   10.9430 O.2     1  UNL1       -0.2665
     22 N          64.5707   92.6012   12.3749 N.am    1  UNL1       -0.2778
     23 H          63.9939   93.2842   12.7873 H       1  UNL1        0.1553
     24 C          67.1969   94.3665    8.9671 C.3     1  UNL1        0.0345
     25 C          66.7426   95.0919   10.1988 C.ar    1  UNL1        0.0204
     26 C          66.8655   96.5657   10.4498 C.ar    1  UNL1        0.0396
     27 C          66.2844   96.8557   11.8020 C.ar    1  UNL1        0.1795
     28 O          65.8023   95.5611   12.3866 O.2     1  UNL1       -0.4461
     29 C          66.0854   94.4711   11.3959 C.ar    1  UNL1        0.1948
@<TRIPOS>BOND
     1    24    25    1
     2    25    26   ar
     3    26    27   ar
     4    27    28   ar
     5    28    29   ar
     6    29    20    1
     7    20    21    2
     8    20    22   am
     9    22     1    1
    10     1     2   ar
    11     2     3   ar
    12     3     4   ar
    13     4     8    1
    14     8     9   am
    15     9    10    2
    16     9    11    1
    17    11    12   ar
    18    12    13   ar
    19    13    14   ar
    20    14    15   ar
    21    15    16    1
    22    15    17   ar
    23    17    18    1
    24    18    19    2
    25     4     5   ar
    26     5     6    1
    27     5     7   ar
    28    29    25   ar
    29     7     1   ar
    30    18     8   am
    31    17    11   ar
    32    22    23    1
@<TRIPOS>MOLECULE
*****
 29 32 0 0 0
SMALL
GASTEIGER

@<TRIPOS>ATOM
      1 C          63.8843   90.0013   12.7020 C.ar    1  UNL1        0.0515
      2 C          63.0025   89.3357   11.6875 C.ar    1  UNL1        0.0160
      3 C          62.7325   87.8631   11.7796 C.ar    1  UNL1        0.0175
      4 C          63.3443   87.0561   12.8861 C.ar    1  UNL1        0.0718
      5 C          64.2261   87.7218   13.9006 C.ar    1  UNL1        0.0730
      6 CL         64.8379   86.9148   15.0073 Cl      1  UNL1       -0.0809
      7 C          64.4961   89.1944   13.8086 C.ar    1  UNL1        0.0273
      8 N          63.0743   85.5835   12.9782 N.am    1  UNL1       -0.2002
      9 C          62.6381   84.8422   14.2071 C.2     1  UNL1        0.2590
     10 O          62.3955   85.4433   15.5597 O.2     1  UNL1       -0.2691
     11 C          62.4873   83.3941   13.8459 C.ar    1  UNL1        0.0609
     12 C          62.0820   82.1956   14.6517 C.ar    1  UNL1        0.0048
     13 C          62.0196   80.8435   14.0053 C.ar    1  UNL1        0.0025
     14 C          62.3625   80.6899   12.5531 C.ar    1  UNL1        0.0298
     15 C          62.7677   81.8884   11.7473 C.ar    1  UNL1        0.1446
     16 F          63.1106   81.7348   10.2951 F       1  UNL1       -0.2040
     17 C          62.8302   83.2405   12.3937 C.ar    1  UNL1        0.0861
     18 C          63.1929   84.5936   11.8574 C.2     1  UNL1        0.2611
     19 O          63.6025   84.9025   10.4479 O.2     1  UNL1       -0.2691
     20 C          65.1900   91.9883   11.6546 C.2     1  UNL1        0.2839
     21 O          65.9556   91.0300   10.7911 O.2     1  UNL1       -0.2665
     22 N          64.1544   91.4740   12.6100 N.am    1  UNL1       -0.2778
     23 H          63.6519   92.1029   13.1767 H       1  UNL1        0.1553
     24 C          66.6481   93.8170   13.9304 C.3     1  UNL1        0.0345
     25 C          66.1302   94.3015   12.6087 C.ar    1  UNL1        0.0204
     26 C          66.1917   95.7116   12.1008 C.ar    1  UNL1        0.0396
     27 C          65.5594   95.7426   10.7409 C.ar    1  UNL1        0.1795
     28 O          65.1072   94.3516   10.4083 O.2     1  UNL1       -0.4461
     29 C          65.4600   93.4609   11.5625 C.ar    1  UNL1        0.1948
@<TRIPOS>BOND
     1    24    25    1
     2    25    26   ar
     3    26    27   ar
     4    27    28   ar
     5    28    29   ar
     6    29    20    1
     7    20    21    2
     8    20    22   am
     9    22     1    1
    10     1     2   ar
    11     2     3   ar
    12     3     4   ar
    13     4     8    1
    14     8     9   am
    15     9    10    2
    16     9    11    1
    17    11    12   ar
    18    12    13   ar
    19    13    14   ar
    20    14    15   ar
    21    15    16    1
    22    15    17   ar
    23    17    18    1
    24    18    19    2
    25     4     5   ar
    26     5     6    1
    27     5     7   ar
    28    29    25   ar
    29     7     1   ar
    30    18     8   am
    31    17    11   ar
    32    22    23    1
@<TRIPOS>MOLECULE
*****
 29 32 0 0 0
SMALL
GASTEIGER

@<TRIPOS>ATOM
      1 C          60.6934   88.7194    9.0212 C.ar    1  UNL1        0.0515
      2 C          60.3761   88.7663   10.4865 C.ar    1  UNL1        0.0160
      3 C          60.9838   87.7600   11.4181 C.ar    1  UNL1        0.0175
      4 C          61.9089   86.7067   10.8845 C.ar    1  UNL1        0.0718
      5 C          62.2262   86.6597    9.4192 C.ar    1  UNL1        0.0730
      6 CL         63.1513   85.6064    8.8855 Cl      1  UNL1       -0.0809
      7 C          61.6185   87.6661    8.4876 C.ar    1  UNL1        0.0273
      8 N          62.5166   85.7003   11.8161 N.am    1  UNL1       -0.2002
      9 C          63.2964   86.0085   13.0599 C.2     1  UNL1        0.2590
     10 O          63.6054   87.3771   13.5904 O.2     1  UNL1       -0.2691
     11 C          63.7130   84.7077   13.6800 C.ar    1  UNL1        0.0609
     12 C          64.5005   84.3923   14.9171 C.ar    1  UNL1        0.0048
     13 C          64.7656   82.9648   15.2936 C.ar    1  UNL1        0.0025
     14 C          64.2432   81.8527   14.4331 C.ar    1  UNL1        0.0298
     15 C          63.4557   82.1682   13.1961 C.ar    1  UNL1        0.1446
     16 F          62.9334   81.0561   12.3356 F       1  UNL1       -0.2040
     17 C          63.1906   83.5957   12.8195 C.ar    1  UNL1        0.0861
     18 C          62.4512   84.2091   11.6676 C.2     1  UNL1        0.2611
     19 O          61.7666   83.4625   10.5613 O.2     1  UNL1       -0.2691
     20 C          59.2696   89.2661    6.9180 C.2     1  UNL1        0.2839
     21 O          59.0611   87.8002    6.6780 O.2     1  UNL1       -0.2665
     22 N          60.0857   89.7257    8.0896 N.am    1  UNL1       -0.2778
     23 H          60.2225   90.6878    8.2471 H       1  UNL1        0.1553
     24 C          60.8948   91.1606    4.8157 C.3     1  UNL1        0.0345
     25 C          59.4090   91.1433    5.0200 C.ar    1  UNL1        0.0204
     26 C          58.4091   91.9937    4.2939 C.ar    1  UNL1        0.0396
     27 C          57.0442   91.6485    4.8114 C.ar    1  UNL1        0.1795
     28 O          57.2004   90.5848    5.8574 O.2     1  UNL1       -0.4461
     29 C          58.6619   90.2725    5.9863 C.ar    1  UNL1        0.1948
@<TRIPOS>BOND
     1    24    25    1
     2    25    26   ar
     3    26    27   ar
     4    27    28   ar
     5    28    29   ar
     6    29    20    1
     7    20    21    2
     8    20    22   am
     9    22     1    1
    10     1     2   ar
    11     2     3   ar
    12     3     4   ar
    13     4     8    1
    14     8     9   am
    15     9    10    2
    16     9    11    1
    17    11    12   ar
    18    12    13   ar
    19    13    14   ar
    20    14    15   ar
    21    15    16    1
    22    15    17   ar
    23    17    18    1
    24    18    19    2
    25     4     5   ar
    26     5     6    1
    27     5     7   ar
    28    29    25   ar
    29     7     1   ar
    30    18     8   am
    31    17    11   ar
    32    22    23    1
@<TRIPOS>MOLECULE
*****
 29 32 0 0 0
SMALL
GASTEIGER

@<TRIPOS>ATOM
      1 C          60.6836   88.7187    9.0013 C.ar    1  UNL1        0.0515
      2 C          60.3578   88.7562   10.4649 C.ar    1  UNL1        0.0160
      3 C          60.9646   87.7474   11.3945 C.ar    1  UNL1        0.0175
      4 C          61.8972   86.7011   10.8605 C.ar    1  UNL1        0.0718
      5 C          62.2230   86.6635    9.3968 C.ar    1  UNL1        0.0730
      6 CL         63.1557   85.6171    8.8626 Cl      1  UNL1       -0.0809
      7 C          61.6163   87.6723    8.4672 C.ar    1  UNL1        0.0273
      8 N          62.5040   85.6923   11.7901 N.am    1  UNL1       -0.2002
      9 C          62.4380   84.2015   11.6380 C.2     1  UNL1        0.2590
     10 O          61.7537   83.4577   10.5296 O.2     1  UNL1       -0.2691
     11 C          63.1765   83.5850   12.7889 C.ar    1  UNL1        0.0609
     12 C          63.4408   82.1564   13.1622 C.ar    1  UNL1        0.0048
     13 C          64.2275   81.8377   14.3989 C.ar    1  UNL1        0.0025
     14 C          64.7499   82.9475   15.2623 C.ar    1  UNL1        0.0298
     15 C          64.4857   84.3761   14.8890 C.ar    1  UNL1        0.1446
     16 F          65.0081   85.4859   15.7523 F       1  UNL1       -0.2040
     17 C          63.6990   84.6948   13.6523 C.ar    1  UNL1        0.0861
     18 C          63.2833   85.9971   13.0349 C.2     1  UNL1        0.2611
     19 O          63.5927   87.3644   13.5688 O.2     1  UNL1       -0.2691
     20 C          59.2560   89.2712    6.9021 C.2     1  UNL1        0.2839
     21 O          59.0419   87.8060    6.6620 O.2     1  UNL1       -0.2665
     22 N          60.0768   89.7275    8.0717 N.am    1  UNL1       -0.2778
     23 H          60.2173   90.6891    8.2292 H       1  UNL1        0.1553
     24 C          60.8834   91.1714    4.8067 C.3     1  UNL1        0.0345
     25 C          59.3973   91.1534    5.0093 C.ar    1  UNL1        0.0204
     26 C          58.3982   92.0057    4.2844 C.ar    1  UNL1        0.0396
     27 C          57.0327   91.6590    4.7995 C.ar    1  UNL1        0.1795
     28 O          57.1879   90.5925    5.8428 O.2     1  UNL1       -0.4461
     29 C          58.6492   90.2800    5.9725 C.ar    1  UNL1        0.1948
@<TRIPOS>BOND
     1    24    25    1
     2    25    26   ar
     3    26    27   ar
     4    27    28   ar
     5    28    29   ar
     6    29    20    1
     7    20    21    2
     8    20    22   am
     9    22     1    1
    10     1     2   ar
    11     2     3   ar
    12     3     4   ar
    13     4     8    1
    14     8     9   am
    15     9    10    2
    16     9    11    1
    17    11    12   ar
    18    12    13   ar
    19    13    14   ar
    20    14    15   ar
    21    15    16    1
    22    15    17   ar
    23    17    18    1
    24    18    19    2
    25     4     5   ar
    26     5     6    1
    27     5     7   ar
    28    29    25   ar
    29     7     1   ar
    30    18     8   am
    31    17    11   ar
    32    22    23    1
@<TRIPOS>MOLECULE
*****
 29 32 0 0 0
SMALL
GASTEIGER

@<TRIPOS>ATOM
      1 C          60.6672   88.4728    8.8109 C.ar    1  UNL1        0.0515
      2 C          60.3292   87.0438    8.5051 C.ar    1  UNL1        0.0160
      3 C          60.9067   85.9409    9.3418 C.ar    1  UNL1        0.0175
      4 C          61.8221   86.2670   10.4844 C.ar    1  UNL1        0.0718
      5 C          62.1601   87.6960   10.7902 C.ar    1  UNL1        0.0730
      6 CL         63.0757   88.0222   11.9328 Cl      1  UNL1       -0.0809
      7 C          61.5826   88.7989    9.9535 C.ar    1  UNL1        0.0273
      8 N          62.3996   85.1641   11.3211 N.am    1  UNL1       -0.2002
      9 C          63.2640   84.0424   10.8266 C.2     1  UNL1        0.2590
     10 O          63.7028   83.8267    9.4085 O.2     1  UNL1       -0.2691
     11 C          63.6128   83.1743   11.9991 C.ar    1  UNL1        0.0609
     12 C          64.4373   81.9266   12.1141 C.ar    1  UNL1        0.0048
     13 C          64.6130   81.2640   13.4483 C.ar    1  UNL1        0.0025
     14 C          63.9640   81.8492   14.6675 C.ar    1  UNL1        0.0298
     15 C          63.1395   83.0969   14.5525 C.ar    1  UNL1        0.1446
     16 F          62.4905   83.6821   15.7717 F       1  UNL1       -0.2040
     17 C          62.9638   83.7594   13.2183 C.ar    1  UNL1        0.0861
     18 C          62.2141   84.9892   12.7993 C.2     1  UNL1        0.2611
     19 O          61.4185   85.8865   13.7003 O.2     1  UNL1       -0.2691
     20 C          59.3514   89.2500    6.7098 C.2     1  UNL1        0.2839
     21 O          59.1905   87.8212    6.2821 O.2     1  UNL1       -0.2665
     22 N          60.0897   89.5757    7.9742 N.am    1  UNL1       -0.2778
     23 H          60.1952   90.5134    8.2549 H       1  UNL1        0.1553
     24 C          61.0269   91.2456    4.7452 C.3     1  UNL1        0.0345
     25 C          59.5441   91.2702    4.9700 C.ar    1  UNL1        0.0204
     26 C          58.5710   92.2163    4.3313 C.ar    1  UNL1        0.0396
     27 C          57.1995   91.8838    4.8397 C.ar    1  UNL1        0.1795
     28 O          57.3249   90.7322    5.7925 O.2     1  UNL1       -0.4461
     29 C          58.7739   90.3529    5.8731 C.ar    1  UNL1        0.1948
@<TRIPOS>BOND
     1    24    25    1
     2    25    26   ar
     3    26    27   ar
     4    27    28   ar
     5    28    29   ar
     6    29    20    1
     7    20    21    2
     8    20    22   am
     9    22     1    1
    10     1     2   ar
    11     2     3   ar
    12     3     4   ar
    13     4     8    1
    14     8     9   am
    15     9    10    2
    16     9    11    1
    17    11    12   ar
    18    12    13   ar
    19    13    14   ar
    20    14    15   ar
    21    15    16    1
    22    15    17   ar
    23    17    18    1
    24    18    19    2
    25     4     5   ar
    26     5     6    1
    27     5     7   ar
    28    29    25   ar
    29     7     1   ar
    30    18     8   am
    31    17    11   ar
    32    22    23    1
