@<TRIPOS>MOLECULE
*****
 25 28 0 0 0
SMALL
GASTEIGER

@<TRIPOS>ATOM
      1 N          62.6570   88.7350   11.2573 N.ar    1  UNL1       -0.3256
      2 C          62.7399   87.3595   11.8499 C.ar    1  UNL1        0.0367
      3 C          63.5273   87.4503   13.1234 C.ar    1  UNL1        0.0109
      4 C          63.9311   88.8818   13.3178 C.ar    1  UNL1        0.0167
      5 C          64.7191   89.5648   14.3959 C.ar    1  UNL1        0.0308
      6 C          64.9692   91.0419   14.3207 C.ar    1  UNL1        0.1402
      7 F          65.7572   91.7250   15.3989 F       1  UNL1       -0.2042
      8 C          64.4313   91.8359   13.1674 C.ar    1  UNL1        0.0311
      9 C          63.6433   91.1528   12.0892 C.ar    1  UNL1        0.0195
     10 C          63.3932   89.6758   12.1644 C.ar    1  UNL1        0.0598
     11 C          63.7749   86.2176   13.9415 C.3     1  UNL1        0.1216
     12 N          63.2351   84.8943   13.4861 N.am    1  UNL1       -0.2711
     13 C          63.4827   83.6616   14.3043 C.2     1  UNL1        0.2553
     14 O          64.2702   83.7523   15.5777 O.2     1  UNL1       -0.2693
     15 C          62.4476   84.8035   12.2127 C.3     1  UNL1        0.1003
     16 C          62.2000   86.0362   11.3946 C.3     1  UNL1        0.0650
     17 C          62.9429   82.3383   13.8488 C.ar    1  UNL1        0.0830
     18 C          61.6646   81.7021   14.3088 C.ar    1  UNL1        0.0116
     19 C          61.5182   80.3895   13.5978 C.ar    1  UNL1        0.0076
     20 C          62.7058   80.2144   12.6984 C.ar    1  UNL1        0.0356
     21 S          63.5863   81.4188   12.8536 S.2     1  UNL1       -0.0819
     22 C          61.9602   89.1048    9.9814 C.3     1  UNL1        0.1474
     23 O          59.8166   90.5236   10.3579 O.co2   1  UNL1       -0.5472
     24 C          60.4661   89.2335    9.9529 C.2     1  UNL1        0.0732
     25 O          59.6213   88.0723    9.5194 O.co2   1  UNL1       -0.5472
@<TRIPOS>UNITY_ATOM_ATTR
23 1
charge -1
@<TRIPOS>BOND
     1    23    24   ar
     2    24    25   ar
     3    24    22    1
     4    22     1    1
     5     1     2   ar
     6     2     3   ar
     7     3     4   ar
     8     4     5   ar
     9     5     6   ar
    10     6     7    1
    11     6     8   ar
    12     8     9   ar
    13     9    10   ar
    14     3    11    1
    15    11    12    1
    16    12    13   am
    17    13    14    2
    18    13    17    1
    19    17    18   ar
    20    18    19   ar
    21    19    20   ar
    22    20    21   ar
    23    12    15    1
    24    15    16    1
    25    10     1   ar
    26    21    17   ar
    27    16     2    1
    28    10     4   ar
@<TRIPOS>MOLECULE
*****
 25 28 0 0 0
SMALL
GASTEIGER

@<TRIPOS>ATOM
      1 N          62.1344   86.9244   11.7437 N.ar    1  UNL1       -0.3256
      2 C          62.9633   88.0751   12.2323 C.ar    1  UNL1        0.0367
      3 C          62.7015   89.2486   11.3355 C.ar    1  UNL1        0.0109
      4 C          61.7108   88.8232   10.2927 C.ar    1  UNL1        0.0167
      5 C          61.0825   89.5582    9.1460 C.ar    1  UNL1        0.0308
      6 C          60.1038   88.8568    8.2515 C.ar    1  UNL1        0.1402
      7 F          59.4755   89.5918    7.1048 F       1  UNL1       -0.2042
      8 C          59.7533   87.4203    8.5038 C.ar    1  UNL1        0.0311
      9 C          60.3815   86.6853    9.6506 C.ar    1  UNL1        0.0195
     10 C          61.3603   87.3867   10.5450 C.ar    1  UNL1        0.0598
     11 C          63.3990   90.5530   11.5843 C.3     1  UNL1        0.1216
     12 N          64.3584   90.6839   12.7300 N.am    1  UNL1       -0.2711
     13 C          65.0560   91.9883   12.9788 C.2     1  UNL1        0.2553
     14 O          64.7942   93.1619   12.0820 O.2     1  UNL1       -0.2693
     15 C          64.6202   89.5103   13.6268 C.3     1  UNL1        0.1003
     16 C          63.9227   88.2059   13.3780 C.3     1  UNL1        0.0650
     17 C          66.0154   92.1191   14.1245 C.ar    1  UNL1        0.0830
     18 C          65.6571   92.4661   15.5392 C.ar    1  UNL1        0.0116
     19 C          66.9216   92.4873   16.3457 C.ar    1  UNL1        0.0076
     20 C          68.0614   92.1534   15.4295 C.ar    1  UNL1        0.0356
     21 S          67.5013   91.9259   14.0567 S.2     1  UNL1       -0.0819
     22 C          62.0877   85.5522   12.3478 C.3     1  UNL1        0.1474
     23 O          63.3406   83.8304   10.8593 O.co2   1  UNL1       -0.5472
     24 C          63.2299   84.6023   12.1408 C.2     1  UNL1        0.0732
     25 O          64.2615   84.4241   13.2150 O.co2   1  UNL1       -0.5472
@<TRIPOS>UNITY_ATOM_ATTR
23 1
charge -1
@<TRIPOS>BOND
     1    23    24   ar
     2    24    25   ar
     3    24    22    1
     4    22     1    1
     5     1     2   ar
     6     2     3   ar
     7     3     4   ar
     8     4     5   ar
     9     5     6   ar
    10     6     7    1
    11     6     8   ar
    12     8     9   ar
    13     9    10   ar
    14     3    11    1
    15    11    12    1
    16    12    13   am
    17    13    14    2
    18    13    17    1
    19    17    18   ar
    20    18    19   ar
    21    19    20   ar
    22    20    21   ar
    23    12    15    1
    24    15    16    1
    25    10     1   ar
    26    21    17   ar
    27    16     2    1
    28    10     4   ar
@<TRIPOS>MOLECULE
*****
 25 28 0 0 0
SMALL
GASTEIGER

@<TRIPOS>ATOM
      1 N          63.1806   88.8543   12.2199 N.ar    1  UNL1       -0.3256
      2 C          62.3163   88.9340   10.9965 C.ar    1  UNL1        0.0367
      3 C          61.8460   87.5475   10.6702 C.ar    1  UNL1        0.0109
      4 C          62.4197   86.6109   11.6918 C.ar    1  UNL1        0.0167
      5 C          62.2976   85.1271   11.8737 C.ar    1  UNL1        0.0308
      6 C          63.0003   84.4508   13.0134 C.ar    1  UNL1        0.1402
      7 F          62.8782   82.9669   13.1953 F       1  UNL1       -0.2042
      8 C          63.8251   85.2585   13.9711 C.ar    1  UNL1        0.0311
      9 C          63.9473   86.7424   13.7892 C.ar    1  UNL1        0.0195
     10 C          63.2445   87.4186   12.6496 C.ar    1  UNL1        0.0598
     11 C          60.9561   87.3170    9.4849 C.3     1  UNL1        0.1216
     12 N          60.5365   88.4729    8.6260 N.am    1  UNL1       -0.2711
     13 C          59.6466   88.2423    7.4406 C.2     1  UNL1        0.2553
     14 O          59.1763   86.8558    7.1143 O.2     1  UNL1       -0.2693
     15 C          61.0068   89.8594    8.9523 C.3     1  UNL1        0.1003
     16 C          61.8966   90.0899   10.1376 C.3     1  UNL1        0.0650
     17 C          59.2270   89.3982    6.5817 C.ar    1  UNL1        0.0830
     18 C          60.1367   90.2585    5.7555 C.ar    1  UNL1        0.0116
     19 C          59.2961   91.2889    5.0614 C.ar    1  UNL1        0.0076
     20 C          57.8670   91.0654    5.4586 C.ar    1  UNL1        0.0356
     21 S          57.8243   89.8969    6.3982 S.2     1  UNL1       -0.0819
     22 C          63.8615   90.0078   12.8950 C.3     1  UNL1        0.1474
     23 O          64.1605   91.5414   14.9707 O.co2   1  UNL1       -0.5472
     24 C          63.4465   90.4198   14.2762 C.2     1  UNL1        0.0732
     25 O          62.3174   89.7102   14.9631 O.co2   1  UNL1       -0.5472
@<TRIPOS>UNITY_ATOM_ATTR
23 1
charge -1
@<TRIPOS>BOND
     1    23    24   ar
     2    24    25   ar
     3    24    22    1
     4    22     1    1
     5     1     2   ar
     6     2     3   ar
     7     3     4   ar
     8     4     5   ar
     9     5     6   ar
    10     6     7    1
    11     6     8   ar
    12     8     9   ar
    13     9    10   ar
    14     3    11    1
    15    11    12    1
    16    12    13   am
    17    13    14    2
    18    13    17    1
    19    17    18   ar
    20    18    19   ar
    21    19    20   ar
    22    20    21   ar
    23    12    15    1
    24    15    16    1
    25    10     1   ar
    26    21    17   ar
    27    16     2    1
    28    10     4   ar
