@<TRIPOS>MOLECULE
*****
 45 49 0 0 0
SMALL
GASTEIGER

@<TRIPOS>ATOM
      1 N          61.4090   89.6739   13.0988 N.am    1  UNL1        0.0007
      2 C          62.8709   89.9823   13.2322 C.2     1  UNL1        0.3851
      3 C          60.7556   89.7074   11.7490 C.2     1  UNL1        0.3433
      4 O          59.8192   90.8250   11.3965 O.2     1  UNL1       -0.2483
      5 C          61.6044   86.4551    8.7570 C.ar    1  UNL1        0.1345
      6 C          62.1845   86.3738   10.1379 C.ar    1  UNL1        0.0240
      7 C          61.9016   87.4580   11.1353 C.ar    1  UNL1        0.0094
      8 C          61.0385   88.6233   10.7517 C.ar    1  UNL1        0.0919
      9 C          60.4584   88.7045    9.3708 C.ar    1  UNL1        0.1051
     10 N          60.7414   87.6204    8.3735 N.ar    1  UNL1       -0.2391
     11 C          61.1907   84.0061    5.6616 C.3     1  UNL1        0.1110
     12 N          60.9078   85.0903    6.6590 N.am    1  UNL1       -0.2979
     13 C          61.8874   85.3710    7.7597 C.2     1  UNL1        0.2636
     14 O          63.1499   84.5676    7.8631 O.2     1  UNL1       -0.2685
     15 H          60.0792   85.6176    6.5912 H       1  UNL1        0.1498
     16 N          63.6794   90.3242   12.0159 N.pl3   1  UNL1       -0.2438
     17 H          63.6544   89.7359   11.2269 H       1  UNL1        0.2647
     18 C          64.5259   91.5625   12.0016 C.ar    1  UNL1        0.1168
     19 C          65.2326   92.0023   13.2495 C.ar    1  UNL1        0.0365
     20 C          66.0790   93.2405   13.2352 C.ar    1  UNL1        0.0404
     21 C          66.2188   94.0389   11.9730 C.ar    1  UNL1        0.1450
     22 O          66.9788   95.2932   11.6578 O.2     1  UNL1       -0.4577
     23 C          66.7418   95.6285   10.2151 C.ar    1  UNL1        0.1233
     24 C          67.3112   96.8044    9.4781 C.3     1  UNL1        0.0725
     25 C          65.8353   94.5815    9.6387 C.ar    1  UNL1        0.0361
     26 C          65.5122   93.5991   10.7252 C.ar    1  UNL1        0.0400
     27 C          64.6657   92.3609   10.7395 C.ar    1  UNL1        0.0365
     28 N          63.5243   89.9488   14.5820 N.pl3   1  UNL1       -0.2585
     29 H          63.9937   90.7448   14.9215 H       1  UNL1        0.2589
     30 C          63.4625   88.7025   15.4145 C.3     1  UNL1        0.2142
     31 C          62.9538   88.8796   16.8144 C.3     1  UNL1        0.0490
     32 C          62.7745   87.8417   17.8825 C.3     1  UNL1        0.0057
     33 C          63.0596   86.3707   17.8145 C.3     1  UNL1        0.0216
     34 C          63.5944   85.5741   16.6615 C.3     1  UNL1        0.0940
     35 N          63.9762   86.0517   15.2918 N.am    1  UNL1       -0.2686
     36 C          63.9175   87.4440   14.7369 C.2     1  UNL1        0.2622
     37 O          64.3742   87.5983   13.3164 O.2     1  UNL1       -0.2712
     38 C          64.4839   84.9978   14.3530 C.3     1  UNL1        0.1794
     39 C          63.7420   83.7022   14.2081 C.2     1  UNL1        0.2459
     40 O          63.0766   83.0816   15.4006 O.2     1  UNL1       -0.2730
     41 N          63.6655   83.0272   12.8707 N.am    1  UNL1       -0.2781
     42 C          64.2779   83.5255   11.5953 C.3     1  UNL1        0.0935
     43 C          63.9541   82.5417   10.5103 C.3     1  UNL1        0.0233
     44 C          63.1416   81.4354   11.1151 C.3     1  UNL1        0.0233
     45 C          62.9632   81.7354   12.5739 C.3     1  UNL1        0.0935
@<TRIPOS>BOND
     1    11    12    1
     2    12    13   am
     3    13    14    2
     4    13     5    1
     5     5     6   ar
     6     6     7   ar
     7     7     8   ar
     8     8     3    1
     9     3     4    2
    10     3     1    1
    11     1     2    2
    12     2    16    1
    13    16    18    1
    14    18    19   ar
    15    19    20   ar
    16    20    21   ar
    17    21    22   ar
    18    22    23   ar
    19    23    24    1
    20    23    25   ar
    21    25    26   ar
    22    26    27   ar
    23     2    28    1
    24    30    28    1
    25    30    31    1
    26    31    32    1
    27    32    33    1
    28    33    34    1
    29    34    35    1
    30    35    38    1
    31    38    39    1
    32    39    40    2
    33    39    41   am
    34    41    42    1
    35    42    43    1
    36    43    44    1
    37    44    45    1
    38    35    36   am
    39    36    37    2
    40     8     9   ar
    41     9    10   ar
    42    10     5   ar
    43    27    18   ar
    44    36    30    1
    45    26    21   ar
    46    45    41    1
    47    12    15    1
    48    16    17    1
    49    28    29    1
@<TRIPOS>MOLECULE
*****
 45 49 0 0 0
SMALL
GASTEIGER

@<TRIPOS>ATOM
      1 N          64.4445   88.6881   14.6293 N.am    1  UNL1        0.0007
      2 C          63.7242   89.4236   13.5383 C.2     1  UNL1        0.3851
      3 C          63.6970   87.7285   15.5071 C.2     1  UNL1        0.3433
      4 O          63.0632   88.2121   16.7777 O.2     1  UNL1       -0.2483
      5 C          63.3558   83.3990   14.3284 C.ar    1  UNL1        0.1345
      6 C          64.1011   84.3592   13.4494 C.ar    1  UNL1        0.0240
      7 C          64.2148   85.8024   13.8423 C.ar    1  UNL1        0.0094
      8 C          63.5833   86.2854   15.1142 C.ar    1  UNL1        0.0919
      9 C          62.8380   85.3253   15.9933 C.ar    1  UNL1        0.1051
     10 N          62.7243   83.8821   15.6004 N.ar    1  UNL1       -0.2391
     11 C          61.9394   79.7084   13.9781 C.3     1  UNL1        0.1110
     12 N          62.0532   81.1516   14.3710 N.am    1  UNL1       -0.2979
     13 C          63.2421   81.9559   13.9356 C.2     1  UNL1        0.2636
     14 O          64.3172   81.3171   13.1073 O.2     1  UNL1       -0.2685
     15 H          61.3476   81.5709   14.9146 H       1  UNL1        0.1498
     16 N          62.2565   89.1995   13.3251 N.pl3   1  UNL1       -0.2438
     17 H          61.6203   89.3770   14.0551 H       1  UNL1        0.2647
     18 C          61.7581   88.7051   11.9995 C.ar    1  UNL1        0.1168
     19 C          60.6007   89.3867   11.3317 C.ar    1  UNL1        0.0365
     20 C          60.1023   88.8922   10.0062 C.ar    1  UNL1        0.0404
     21 C          60.7613   87.7162    9.3484 C.ar    1  UNL1        0.1450
     22 O          60.4918   87.0096    8.0529 O.2     1  UNL1       -0.4577
     23 C          61.4825   85.8912    7.9201 C.ar    1  UNL1        0.1233
     24 C          61.5753   84.9267    6.7750 C.3     1  UNL1        0.0725
     25 C          62.3644   85.9067    9.1335 C.ar    1  UNL1        0.0361
     26 C          61.9186   87.0346   10.0161 C.ar    1  UNL1        0.0400
     27 C          62.4170   87.5290   11.3417 C.ar    1  UNL1        0.0365
     28 N          64.4717   90.3832   12.6605 N.pl3   1  UNL1       -0.2585
     29 H          64.4176   90.2990   11.6811 H       1  UNL1        0.2589
     30 C          65.3018   91.4711   13.2751 C.3     1  UNL1        0.2142
     31 C          65.8390   91.1843   14.6459 C.3     1  UNL1        0.0490
     32 C          66.6919   92.0575   15.5177 C.3     1  UNL1        0.0057
     33 C          67.2184   93.4331   15.2339 C.3     1  UNL1        0.0216
     34 C          67.0219   94.2753   14.0084 C.3     1  UNL1        0.0940
     35 N          66.2504   93.9499   12.7637 N.am    1  UNL1       -0.2686
     36 C          65.4849   92.7019   12.4375 C.2     1  UNL1        0.2622
     37 O          64.8137   92.6820   11.0961 O.2     1  UNL1       -0.2712
     38 C          66.2435   95.0130   11.7057 C.3     1  UNL1        0.1794
     39 C          66.8934   94.7547   10.3787 C.2     1  UNL1        0.2459
     40 O          68.0513   93.8060   10.2828 O.2     1  UNL1       -0.2730
     41 N          66.3855   95.4451    9.1477 N.am    1  UNL1       -0.2781
     42 C          65.2425   96.4147    9.0887 C.3     1  UNL1        0.0935
     43 C          65.0820   96.8559    7.6642 C.3     1  UNL1        0.0233
     44 C          66.1257   96.1590    6.8426 C.3     1  UNL1        0.0233
     45 C          66.9313   95.2871    7.7595 C.3     1  UNL1        0.0935
@<TRIPOS>BOND
     1    11    12    1
     2    12    13   am
     3    13    14    2
     4    13     5    1
     5     5     6   ar
     6     6     7   ar
     7     7     8   ar
     8     8     3    1
     9     3     4    2
    10     3     1    1
    11     1     2    2
    12     2    16    1
    13    16    18    1
    14    18    19   ar
    15    19    20   ar
    16    20    21   ar
    17    21    22   ar
    18    22    23   ar
    19    23    24    1
    20    23    25   ar
    21    25    26   ar
    22    26    27   ar
    23     2    28    1
    24    30    28    1
    25    30    31    1
    26    31    32    1
    27    32    33    1
    28    33    34    1
    29    34    35    1
    30    35    38    1
    31    38    39    1
    32    39    40    2
    33    39    41   am
    34    41    42    1
    35    42    43    1
    36    43    44    1
    37    44    45    1
    38    35    36   am
    39    36    37    2
    40     8     9   ar
    41     9    10   ar
    42    10     5   ar
    43    27    18   ar
    44    36    30    1
    45    26    21   ar
    46    45    41    1
    47    12    15    1
    48    16    17    1
    49    28    29    1
@<TRIPOS>MOLECULE
*****
 45 49 0 0 0
SMALL
GASTEIGER

@<TRIPOS>ATOM
      1 N          61.0178   89.6009   13.0002 N.am    1  UNL1        0.0007
      2 C          62.3480   90.2097   13.3320 C.2     1  UNL1        0.3851
      3 C          60.4867   89.6770   11.5994 C.2     1  UNL1        0.3433
      4 O          59.6209   90.8305   11.1872 O.2     1  UNL1       -0.2483
      5 C          61.4908   86.4448    8.6339 C.ar    1  UNL1        0.1345
      6 C          62.5855   87.2678    9.2456 C.ar    1  UNL1        0.0240
      7 C          62.2508   88.3452   10.2342 C.ar    1  UNL1        0.0094
      8 C          60.8214   88.5996   10.6109 C.ar    1  UNL1        0.0919
      9 C          59.7266   87.7766    9.9992 C.ar    1  UNL1        0.1051
     10 N          60.0613   86.6992    9.0107 N.ar    1  UNL1       -0.2391
     11 C          61.1890   83.9439    5.5672 C.3     1  UNL1        0.1110
     12 N          60.8544   85.0214    6.5558 N.am    1  UNL1       -0.2979
     13 C          61.8254   85.3674    7.6454 C.2     1  UNL1        0.2636
     14 O          63.1312   84.6361    7.7465 O.2     1  UNL1       -0.2685
     15 H          59.9974   85.5014    6.4894 H       1  UNL1        0.1498
     16 N          63.1470   90.8944   12.2631 N.pl3   1  UNL1       -0.2438
     17 H          62.7817   90.9779   11.3527 H       1  UNL1        0.2647
     18 C          64.5028   91.4520   12.5812 C.ar    1  UNL1        0.1168
     19 C          65.2843   92.1730   11.5233 C.ar    1  UNL1        0.0365
     20 C          66.6400   92.7305   11.8414 C.ar    1  UNL1        0.0404
     21 C          67.2141   92.5671   13.2175 C.ar    1  UNL1        0.1450
     22 O          68.5154   93.0064   13.8209 O.2     1  UNL1       -0.4577
     23 C          68.5379   92.5568   15.2517 C.ar    1  UNL1        0.1233
     24 C          69.6521   92.7844   16.2300 C.3     1  UNL1        0.0725
     25 C          67.2507   91.8398   15.5327 C.ar    1  UNL1        0.0361
     26 C          66.4326   91.8461   14.2755 C.ar    1  UNL1        0.0400
     27 C          65.0769   91.2886   13.9573 C.ar    1  UNL1        0.0365
     28 N          62.8791   90.1337   14.7328 N.pl3   1  UNL1       -0.2585
     29 H          63.1209   90.9584   15.2130 H       1  UNL1        0.2589
     30 C          63.0418   88.8010   15.4019 C.3     1  UNL1        0.2142
     31 C          62.6867   88.7565   16.8586 C.3     1  UNL1        0.0490
     32 C          62.7402   87.5890   17.7989 C.3     1  UNL1        0.0057
     33 C          63.1619   86.1778   17.5148 C.3     1  UNL1        0.0216
     34 C          63.6344   85.5856   16.2203 C.3     1  UNL1        0.0940
     35 N          63.8018   86.2582   14.8899 N.am    1  UNL1       -0.2686
     36 C          63.5380   87.6892   14.5258 C.2     1  UNL1        0.2622
     37 O          63.8060   88.0570   13.0964 O.2     1  UNL1       -0.2712
     38 C          64.2986   85.3842   13.7768 C.3     1  UNL1        0.1794
     39 C          63.3235   84.6200   12.9310 C.2     1  UNL1        0.2459
     40 O          62.4372   85.3484   11.9646 O.2     1  UNL1       -0.2730
     41 N          63.2348   83.1275   13.0517 N.am    1  UNL1       -0.2781
     42 C          64.0520   82.2670   13.9690 C.3     1  UNL1        0.0935
     43 C          63.6355   80.8412   13.7604 C.3     1  UNL1        0.0233
     44 C          62.5608   80.8205   12.7141 C.3     1  UNL1        0.0233
     45 C          62.3132   82.2335   12.2761 C.3     1  UNL1        0.0935
@<TRIPOS>BOND
     1    11    12    1
     2    12    13   am
     3    13    14    2
     4    13     5    1
     5     5     6   ar
     6     6     7   ar
     7     7     8   ar
     8     8     3    1
     9     3     4    2
    10     3     1    1
    11     1     2    2
    12     2    16    1
    13    16    18    1
    14    18    19   ar
    15    19    20   ar
    16    20    21   ar
    17    21    22   ar
    18    22    23   ar
    19    23    24    1
    20    23    25   ar
    21    25    26   ar
    22    26    27   ar
    23     2    28    1
    24    30    28    1
    25    30    31    1
    26    31    32    1
    27    32    33    1
    28    33    34    1
    29    34    35    1
    30    35    38    1
    31    38    39    1
    32    39    40    2
    33    39    41   am
    34    41    42    1
    35    42    43    1
    36    43    44    1
    37    44    45    1
    38    35    36   am
    39    36    37    2
    40     8     9   ar
    41     9    10   ar
    42    10     5   ar
    43    27    18   ar
    44    36    30    1
    45    26    21   ar
    46    45    41    1
    47    12    15    1
    48    16    17    1
    49    28    29    1
@<TRIPOS>MOLECULE
*****
 45 49 0 0 0
SMALL
GASTEIGER

@<TRIPOS>ATOM
      1 N          64.4840   88.7732   14.4555 N.am    1  UNL1        0.0007
      2 C          63.7333   89.5081   13.3846 C.2     1  UNL1        0.3851
      3 C          63.7615   87.8141   15.3544 C.2     1  UNL1        0.3433
      4 O          63.1419   88.3034   16.6299 O.2     1  UNL1       -0.2483
      5 C          63.4526   83.4692   14.2249 C.ar    1  UNL1        0.1345
      6 C          63.7617   84.4965   13.1765 C.ar    1  UNL1        0.0240
      7 C          63.8646   85.9449   13.5531 C.ar    1  UNL1        0.0094
      8 C          63.6585   86.3658   14.9779 C.ar    1  UNL1        0.0919
      9 C          63.3495   85.3385   16.0263 C.ar    1  UNL1        0.1051
     10 N          63.2465   83.8902   15.6498 N.ar    1  UNL1       -0.2391
     11 C          62.0713   79.7605   13.9291 C.3     1  UNL1        0.1110
     12 N          62.1743   81.2089   14.3056 N.am    1  UNL1       -0.2979
     13 C          63.3497   82.0209   13.8484 C.2     1  UNL1        0.2636
     14 O          64.4221   81.3846   13.0147 O.2     1  UNL1       -0.2685
     15 H          61.4705   81.6265   14.8528 H       1  UNL1        0.1498
     16 N          62.2602   89.2838   13.2128 N.pl3   1  UNL1       -0.2438
     17 H          61.6463   89.4473   13.9649 H       1  UNL1        0.2647
     18 C          61.7223   88.8103   11.8950 C.ar    1  UNL1        0.1168
     19 C          60.5961   89.5496   11.2354 C.ar    1  UNL1        0.0365
     20 C          60.0582   89.0762    9.9176 C.ar    1  UNL1        0.0404
     21 C          60.6465   87.8635    9.2595 C.ar    1  UNL1        0.1450
     22 O          60.3262   87.1661    7.9706 O.2     1  UNL1       -0.4577
     23 C          61.2544   85.9958    7.8337 C.ar    1  UNL1        0.1233
     24 C          61.2836   85.0223    6.6928 C.3     1  UNL1        0.0725
     25 C          62.1485   85.9699    9.0379 C.ar    1  UNL1        0.0361
     26 C          61.7727   87.1242    9.9191 C.ar    1  UNL1        0.0400
     27 C          62.3106   87.5976   11.2368 C.ar    1  UNL1        0.0365
     28 N          64.4558   90.4672   12.4857 N.pl3   1  UNL1       -0.2585
     29 H          64.3758   90.3811   11.5082 H       1  UNL1        0.2589
     30 C          65.3002   91.5574   13.0761 C.3     1  UNL1        0.2142
     31 C          65.9807   91.2247   14.3707 C.3     1  UNL1        0.0490
     32 C          66.8815   92.0887   15.2028 C.3     1  UNL1        0.0057
     33 C          67.3242   93.4986   14.9456 C.3     1  UNL1        0.0216
     34 C          66.9755   94.3928   13.7929 C.3     1  UNL1        0.0940
     35 N          66.0979   94.0980   12.6126 N.am    1  UNL1       -0.2686
     36 C          65.3523   92.8361   12.2937 C.2     1  UNL1        0.2622
     37 O          64.5532   92.8555   11.0243 O.2     1  UNL1       -0.2712
     38 C          65.9458   95.2124   11.6202 C.3     1  UNL1        0.1794
     39 C          66.8568   95.2870   10.4308 C.2     1  UNL1        0.2459
     40 O          67.1076   96.6049    9.7598 O.2     1  UNL1       -0.2730
     41 N          67.5170   94.0437    9.9126 N.am    1  UNL1       -0.2781
     42 C          67.3623   92.6626   10.4769 C.3     1  UNL1        0.0935
     43 C          68.1974   91.7287    9.6521 C.3     1  UNL1        0.0233
     44 C          68.8682   92.5326    8.5779 C.3     1  UNL1        0.0233
     45 C          68.4476   93.9634    8.7390 C.3     1  UNL1        0.0935
@<TRIPOS>BOND
     1    11    12    1
     2    12    13   am
     3    13    14    2
     4    13     5    1
     5     5     6   ar
     6     6     7   ar
     7     7     8   ar
     8     8     3    1
     9     3     4    2
    10     3     1    1
    11     1     2    2
    12     2    16    1
    13    16    18    1
    14    18    19   ar
    15    19    20   ar
    16    20    21   ar
    17    21    22   ar
    18    22    23   ar
    19    23    24    1
    20    23    25   ar
    21    25    26   ar
    22    26    27   ar
    23     2    28    1
    24    30    28    1
    25    30    31    1
    26    31    32    1
    27    32    33    1
    28    33    34    1
    29    34    35    1
    30    35    38    1
    31    38    39    1
    32    39    40    2
    33    39    41   am
    34    41    42    1
    35    42    43    1
    36    43    44    1
    37    44    45    1
    38    35    36   am
    39    36    37    2
    40     8     9   ar
    41     9    10   ar
    42    10     5   ar
    43    27    18   ar
    44    36    30    1
    45    26    21   ar
    46    45    41    1
    47    12    15    1
    48    16    17    1
    49    28    29    1
@<TRIPOS>MOLECULE
*****
 45 49 0 0 0
SMALL
GASTEIGER

@<TRIPOS>ATOM
      1 N          63.1098   88.0040   11.8019 N.am    1  UNL1        0.0007
      2 C          62.1836   86.9256   11.3229 C.2     1  UNL1        0.3851
      3 C          62.5788   89.3785   12.0828 C.2     1  UNL1        0.3433
      4 O          61.1896   89.5501   12.6221 O.2     1  UNL1       -0.2483
      5 C          65.1533   92.9869   11.3075 C.ar    1  UNL1        0.1345
      6 C          64.4084   92.3403   10.1775 C.ar    1  UNL1        0.0240
      7 C          63.5502   91.1375   10.4359 C.ar    1  UNL1        0.0094
      8 C          63.4370   90.5813   11.8244 C.ar    1  UNL1        0.0919
      9 C          64.1819   91.2279   12.9544 C.ar    1  UNL1        0.1051
     10 N          65.0400   92.4307   12.6960 N.ar    1  UNL1       -0.2391
     11 C          66.2976   96.7701   10.9497 C.3     1  UNL1        0.1110
     12 N          65.4394   95.5672   11.2081 N.am    1  UNL1       -0.2979
     13 C          66.0114   94.1897   11.0491 C.2     1  UNL1        0.2636
     14 O          67.4415   94.0151   10.6317 O.2     1  UNL1       -0.2685
     15 H          64.5008   95.6818   11.4821 H       1  UNL1        0.1498
     16 N          60.7266   87.2217   11.1249 N.pl3   1  UNL1       -0.2438
     17 H          60.1067   87.1758   11.8884 H       1  UNL1        0.2647
     18 C          60.2139   87.5877    9.7635 C.ar    1  UNL1        0.1168
     19 C          59.5678   86.5452    8.9001 C.ar    1  UNL1        0.0365
     20 C          59.0552   86.9112    7.5388 C.ar    1  UNL1        0.0404
     21 C          59.1886   88.3199    7.0409 C.ar    1  UNL1        0.1450
     22 O          58.7807   88.9722    5.7532 O.2     1  UNL1       -0.4577
     23 C          59.1748   90.4179    5.8208 C.ar    1  UNL1        0.1233
     24 C          58.9559   91.4426    4.7474 C.3     1  UNL1        0.0725
     25 C          59.8262   90.6591    7.1503 C.ar    1  UNL1        0.0361
     26 C          59.8347   89.3625    7.9044 C.ar    1  UNL1        0.0400
     27 C          60.3474   88.9964    9.2656 C.ar    1  UNL1        0.0365
     28 N          62.7146   85.5511   11.0421 N.pl3   1  UNL1       -0.2585
     29 H          63.0165   85.3159   10.1350 H       1  UNL1        0.2589
     30 C          62.7856   84.5350   12.1433 C.3     1  UNL1        0.2142
     31 C          62.2691   83.1687   11.8023 C.3     1  UNL1        0.0490
     32 C          62.2031   81.9495   12.6738 C.3     1  UNL1        0.0057
     33 C          62.6373   81.7956   14.1013 C.3     1  UNL1        0.0216
     34 C          63.2448   82.8229   15.0099 C.3     1  UNL1        0.0940
     35 N          63.5681   84.2578   14.7156 N.am    1  UNL1       -0.2686
     36 C          63.3637   85.0197   13.4398 C.2     1  UNL1        0.2622
     37 O          63.7944   86.4564   13.4636 O.2     1  UNL1       -0.2712
     38 C          64.1761   85.0332   15.8465 C.3     1  UNL1        0.1794
     39 C          63.3446   86.0193   16.6121 C.2     1  UNL1        0.2459
     40 O          62.3771   85.5369   17.6519 O.2     1  UNL1       -0.2730
     41 N          63.4806   87.4877   16.3379 N.am    1  UNL1       -0.2781
     42 C          64.4009   88.1156   15.3335 C.3     1  UNL1        0.0935
     43 C          64.2093   89.6020   15.3949 C.3     1  UNL1        0.0233
     44 C          63.1706   89.8928   16.4373 C.3     1  UNL1        0.0233
     45 C          62.7203   88.5861   17.0201 C.3     1  UNL1        0.0935
@<TRIPOS>BOND
     1    11    12    1
     2    12    13   am
     3    13    14    2
     4    13     5    1
     5     5     6   ar
     6     6     7   ar
     7     7     8   ar
     8     8     3    1
     9     3     4    2
    10     3     1    1
    11     1     2    2
    12     2    16    1
    13    16    18    1
    14    18    19   ar
    15    19    20   ar
    16    20    21   ar
    17    21    22   ar
    18    22    23   ar
    19    23    24    1
    20    23    25   ar
    21    25    26   ar
    22    26    27   ar
    23     2    28    1
    24    30    28    1
    25    30    31    1
    26    31    32    1
    27    32    33    1
    28    33    34    1
    29    34    35    1
    30    35    38    1
    31    38    39    1
    32    39    40    2
    33    39    41   am
    34    41    42    1
    35    42    43    1
    36    43    44    1
    37    44    45    1
    38    35    36   am
    39    36    37    2
    40     8     9   ar
    41     9    10   ar
    42    10     5   ar
    43    27    18   ar
    44    36    30    1
    45    26    21   ar
    46    45    41    1
    47    12    15    1
    48    16    17    1
    49    28    29    1
@<TRIPOS>MOLECULE
*****
 45 49 0 0 0
SMALL
GASTEIGER

@<TRIPOS>ATOM
      1 N          62.9142   88.0399   16.3339 N.am    1  UNL1        0.0007
      2 C          63.1879   88.3773   14.8981 C.2     1  UNL1        0.3851
      3 C          63.2369   86.6719   16.8575 C.2     1  UNL1        0.3433
      4 O          63.6037   86.4883   18.3004 O.2     1  UNL1       -0.2483
      5 C          63.1047   83.1183   14.0998 C.ar    1  UNL1        0.1345
      6 C          61.8283   83.7471   14.5746 C.ar    1  UNL1        0.0240
      7 C          61.8724   84.9317   15.4938 C.ar    1  UNL1        0.0094
      8 C          63.1929   85.4874   15.9383 C.ar    1  UNL1        0.0919
      9 C          64.4693   84.8585   15.4635 C.ar    1  UNL1        0.1051
     10 N          64.4252   83.6740   14.5443 N.ar    1  UNL1       -0.2391
     11 C          62.4852   79.4362   12.7550 C.3     1  UNL1        0.1110
     12 N          62.5293   80.6208   13.6742 N.am    1  UNL1       -0.2979
     13 C          63.0606   81.9338   13.1806 C.2     1  UNL1        0.2636
     14 O          63.5480   82.0623   11.7678 O.2     1  UNL1       -0.2685
     15 H          62.2094   80.5365   14.6015 H       1  UNL1        0.1498
     16 N          63.7843   87.3467   13.9860 N.pl3   1  UNL1       -0.2438
     17 H          64.6245   86.8972   14.2338 H       1  UNL1        0.2647
     18 C          63.1006   87.0006   12.6965 C.ar    1  UNL1        0.1168
     19 C          63.2272   85.6184   12.1279 C.ar    1  UNL1        0.0365
     20 C          62.5435   85.2725   10.8384 C.ar    1  UNL1        0.0404
     21 C          61.7333   86.3088   10.1175 C.ar    1  UNL1        0.1450
     22 O          60.9521   86.2606    8.8378 O.2     1  UNL1       -0.4577
     23 C          60.3428   87.6131    8.6156 C.ar    1  UNL1        0.1233
     24 C          59.4802   88.0117    7.4549 C.3     1  UNL1        0.0725
     25 C          60.7474   88.4972    9.7579 C.ar    1  UNL1        0.0361
     26 C          61.6068   87.6910   10.6861 C.ar    1  UNL1        0.0400
     27 C          62.2904   88.0369   11.9756 C.ar    1  UNL1        0.0365
     28 N          62.8652   89.7454   14.3745 N.pl3   1  UNL1       -0.2585
     29 H          61.9442   89.9644   14.1041 H       1  UNL1        0.2589
     30 C          63.9457   90.7799   14.2629 C.3     1  UNL1        0.2142
     31 C          64.6071   91.1717   15.5509 C.3     1  UNL1        0.0490
     32 C          65.7082   92.1662   15.7722 C.3     1  UNL1        0.0057
     33 C          66.4196   93.0144   14.7601 C.3     1  UNL1        0.0216
     34 C          66.2057   93.0777   13.2768 C.3     1  UNL1        0.0940
     35 N          65.2276   92.3084   12.4391 N.am    1  UNL1       -0.2686
     36 C          64.2219   91.2858   12.8781 C.2     1  UNL1        0.2622
     37 O          63.3809   90.6903   11.7879 O.2     1  UNL1       -0.2712
     38 C          65.2596   92.6003   10.9682 C.3     1  UNL1        0.1794
     39 C          66.5201   93.1054   10.3310 C.2     1  UNL1        0.2459
     40 O          67.6865   92.1816   10.1408 O.2     1  UNL1       -0.2730
     41 N          66.6142   94.5342    9.8841 N.am    1  UNL1       -0.2781
     42 C          65.5359   95.5695   10.0079 C.3     1  UNL1        0.0935
     43 C          66.0584   96.8536    9.4353 C.3     1  UNL1        0.0233
     44 C          67.4596   96.6120    8.9576 C.3     1  UNL1        0.0233
     45 C          67.8031   95.1784    9.2350 C.3     1  UNL1        0.0935
@<TRIPOS>BOND
     1    11    12    1
     2    12    13   am
     3    13    14    2
     4    13     5    1
     5     5     6   ar
     6     6     7   ar
     7     7     8   ar
     8     8     3    1
     9     3     4    2
    10     3     1    1
    11     1     2    2
    12     2    16    1
    13    16    18    1
    14    18    19   ar
    15    19    20   ar
    16    20    21   ar
    17    21    22   ar
    18    22    23   ar
    19    23    24    1
    20    23    25   ar
    21    25    26   ar
    22    26    27   ar
    23     2    28    1
    24    30    28    1
    25    30    31    1
    26    31    32    1
    27    32    33    1
    28    33    34    1
    29    34    35    1
    30    35    38    1
    31    38    39    1
    32    39    40    2
    33    39    41   am
    34    41    42    1
    35    42    43    1
    36    43    44    1
    37    44    45    1
    38    35    36   am
    39    36    37    2
    40     8     9   ar
    41     9    10   ar
    42    10     5   ar
    43    27    18   ar
    44    36    30    1
    45    26    21   ar
    46    45    41    1
    47    12    15    1
    48    16    17    1
    49    28    29    1
@<TRIPOS>MOLECULE
*****
 45 49 0 0 0
SMALL
GASTEIGER

@<TRIPOS>ATOM
      1 N          64.3662   88.0914   13.9190 N.am    1  UNL1        0.0007
      2 C          63.5350   89.0109   13.0743 C.2     1  UNL1        0.3851
      3 C          63.7134   86.9719   14.6745 C.2     1  UNL1        0.3433
      4 O          63.2100   87.2014   16.0688 O.2     1  UNL1       -0.2483
      5 C          63.2653   82.9251   12.7581 C.ar    1  UNL1        0.1345
      6 C          63.1534   84.1666   11.9237 C.ar    1  UNL1        0.0240
      7 C          63.3028   85.5156   12.5626 C.ar    1  UNL1        0.0094
      8 C          63.5641   85.6230   14.0357 C.ar    1  UNL1        0.0919
      9 C          63.6760   84.3815   14.8701 C.ar    1  UNL1        0.1051
     10 N          63.5266   83.0326   14.2313 N.ar    1  UNL1       -0.2391
     11 C          63.0560   80.0894    9.9895 C.3     1  UNL1        0.1110
     12 N          63.2054   81.4384   10.6284 N.am    1  UNL1       -0.2979
     13 C          63.1160   81.5762   12.1193 C.2     1  UNL1        0.2636
     14 O          62.8772   80.3651   12.9715 O.2     1  UNL1       -0.2685
     15 H          63.3621   82.2333   10.0691 H       1  UNL1        0.1498
     16 N          62.0511   88.8110   12.9850 N.pl3   1  UNL1       -0.2438
     17 H          61.4953   88.8813   13.7946 H       1  UNL1        0.2647
     18 C          61.4139   88.5041   11.6621 C.ar    1  UNL1        0.1168
     19 C          61.0760   87.0874   11.3032 C.ar    1  UNL1        0.0365
     20 C          60.4388   86.7805    9.9804 C.ar    1  UNL1        0.0404
     21 C          60.1396   87.8903    9.0166 C.ar    1  UNL1        0.1450
     22 O          59.5209   87.8933    7.6500 O.2     1  UNL1       -0.4577
     23 C          59.4765   89.3118    7.1645 C.ar    1  UNL1        0.1233
     24 C          58.9359   89.7754    5.8443 C.3     1  UNL1        0.0725
     25 C          60.0677   90.1855    8.2309 C.ar    1  UNL1        0.0361
     26 C          60.4775   89.3069    9.3755 C.ar    1  UNL1        0.0400
     27 C          61.1146   89.6138   10.6983 C.ar    1  UNL1        0.0365
     28 N          64.1878   90.1304   12.3188 N.pl3   1  UNL1       -0.2585
     29 H          64.1097   90.1739   11.3384 H       1  UNL1        0.2589
     30 C          64.9595   91.1836   13.0573 C.3     1  UNL1        0.2142
     31 C          64.9197   91.0904   14.5538 C.3     1  UNL1        0.0490
     32 C          65.5796   91.9814   15.5641 C.3     1  UNL1        0.0057
     33 C          66.4422   93.1856   15.3275 C.3     1  UNL1        0.0216
     34 C          66.8579   93.7962   14.0220 C.3     1  UNL1        0.0940
     35 N          66.5137   93.3535   12.6307 N.am    1  UNL1       -0.2686
     36 C          65.6689   92.1908   12.2014 C.2     1  UNL1        0.2622
     37 O          65.5127   92.0115   10.7203 O.2     1  UNL1       -0.2712
     38 C          67.0907   94.1831   11.5223 C.3     1  UNL1        0.1794
     39 C          66.3495   95.3880   11.0234 C.2     1  UNL1        0.2459
     40 O          65.6431   96.2885   11.9929 O.2     1  UNL1       -0.2730
     41 N          66.3149   95.6924    9.5550 N.am    1  UNL1       -0.2781
     42 C          66.9707   94.8879    8.4720 C.3     1  UNL1        0.0935
     43 C          66.6794   95.5530    7.1596 C.3     1  UNL1        0.0233
     44 C          65.8436   96.7686    7.4313 C.3     1  UNL1        0.0233
     45 C          65.6183   96.8547    8.9117 C.3     1  UNL1        0.0935
@<TRIPOS>BOND
     1    11    12    1
     2    12    13   am
     3    13    14    2
     4    13     5    1
     5     5     6   ar
     6     6     7   ar
     7     7     8   ar
     8     8     3    1
     9     3     4    2
    10     3     1    1
    11     1     2    2
    12     2    16    1
    13    16    18    1
    14    18    19   ar
    15    19    20   ar
    16    20    21   ar
    17    21    22   ar
    18    22    23   ar
    19    23    24    1
    20    23    25   ar
    21    25    26   ar
    22    26    27   ar
    23     2    28    1
    24    30    28    1
    25    30    31    1
    26    31    32    1
    27    32    33    1
    28    33    34    1
    29    34    35    1
    30    35    38    1
    31    38    39    1
    32    39    40    2
    33    39    41   am
    34    41    42    1
    35    42    43    1
    36    43    44    1
    37    44    45    1
    38    35    36   am
    39    36    37    2
    40     8     9   ar
    41     9    10   ar
    42    10     5   ar
    43    27    18   ar
    44    36    30    1
    45    26    21   ar
    46    45    41    1
    47    12    15    1
    48    16    17    1
    49    28    29    1
@<TRIPOS>MOLECULE
*****
 45 49 0 0 0
SMALL
GASTEIGER

@<TRIPOS>ATOM
      1 N          61.4010   90.1240   13.0238 N.am    1  UNL1        0.0007
      2 C          62.6654   89.3682   13.3071 C.2     1  UNL1        0.3851
      3 C          60.5084   89.6967   11.8966 C.2     1  UNL1        0.3433
      4 O          59.1715   90.3507   11.7093 O.2     1  UNL1       -0.2483
      5 C          61.8411   86.4527    9.0769 C.ar    1  UNL1        0.1345
      6 C          62.4126   87.8342    8.9547 C.ar    1  UNL1        0.0240
      7 C          61.9684   88.9155    9.8946 C.ar    1  UNL1        0.0094
      8 C          60.9526   88.6153   10.9567 C.ar    1  UNL1        0.0919
      9 C          60.3810   87.2339   11.0789 C.ar    1  UNL1        0.1051
     10 N          60.8252   86.1526   10.1390 N.ar    1  UNL1       -0.2391
     11 C          62.1519   84.2138    5.8149 C.3     1  UNL1        0.1110
     12 N          61.7077   85.2952    6.7548 N.am    1  UNL1       -0.2979
     13 C          62.2853   85.3714    8.1370 C.2     1  UNL1        0.2636
     14 O          63.3071   84.3663    8.5793 O.2     1  UNL1       -0.2685
     15 H          61.0370   85.9549    6.4645 H       1  UNL1        0.1498
     16 N          63.0371   88.1851   12.4632 N.pl3   1  UNL1       -0.2438
     17 H          63.0848   88.2745   11.4840 H       1  UNL1        0.2647
     18 C          63.3361   86.8658   13.1114 C.ar    1  UNL1        0.1168
     19 C          64.1834   86.8127   14.3480 C.ar    1  UNL1        0.0365
     20 C          64.4825   85.4934   14.9961 C.ar    1  UNL1        0.0404
     21 C          63.9342   84.2273   14.4076 C.ar    1  UNL1        0.1450
     22 O          64.0592   82.7912   14.8225 O.2     1  UNL1       -0.4577
     23 C          63.2891   81.9568   13.8423 C.ar    1  UNL1        0.1233
     24 C          63.1452   80.4641   13.8767 C.3     1  UNL1        0.0725
     25 C          62.6882   82.8772   12.8216 C.ar    1  UNL1        0.0361
     26 C          63.0869   84.2804   13.1710 C.ar    1  UNL1        0.0400
     27 C          62.7879   85.5997   12.5229 C.ar    1  UNL1        0.0365
     28 N          63.5580   89.7955   14.4343 N.pl3   1  UNL1       -0.2585
     29 H          63.5281   89.3173   15.2943 H       1  UNL1        0.2589
     30 C          64.4962   90.9516   14.2511 C.3     1  UNL1        0.2142
     31 C          65.1887   91.4307   15.4924 C.3     1  UNL1        0.0490
     32 C          66.1739   92.5522   15.6400 C.3     1  UNL1        0.0057
     33 C          66.7098   93.4715   14.5828 C.3     1  UNL1        0.0216
     34 C          66.3929   93.4963   13.1168 C.3     1  UNL1        0.0940
     35 N          65.4618   92.6080   12.3460 N.am    1  UNL1       -0.2686
     36 C          64.6177   91.4755   12.8509 C.2     1  UNL1        0.2622
     37 O          63.7850   90.7741   11.8190 O.2     1  UNL1       -0.2712
     38 C          65.3617   92.8895   10.8761 C.3     1  UNL1        0.1794
     39 C          66.5789   93.3136   10.1091 C.2     1  UNL1        0.2459
     40 O          67.7639   92.3986   10.0170 O.2     1  UNL1       -0.2730
     41 N          66.6111   94.6529    9.4341 N.am    1  UNL1       -0.2781
     42 C          65.5080   95.6693    9.4387 C.3     1  UNL1        0.0935
     43 C          65.9673   96.8553    8.6435 C.3     1  UNL1        0.0233
     44 C          67.3543   96.5719    8.1474 C.3     1  UNL1        0.0233
     45 C          67.7522   95.2107    8.6361 C.3     1  UNL1        0.0935
@<TRIPOS>BOND
     1    11    12    1
     2    12    13   am
     3    13    14    2
     4    13     5    1
     5     5     6   ar
     6     6     7   ar
     7     7     8   ar
     8     8     3    1
     9     3     4    2
    10     3     1    1
    11     1     2    2
    12     2    16    1
    13    16    18    1
    14    18    19   ar
    15    19    20   ar
    16    20    21   ar
    17    21    22   ar
    18    22    23   ar
    19    23    24    1
    20    23    25   ar
    21    25    26   ar
    22    26    27   ar
    23     2    28    1
    24    30    28    1
    25    30    31    1
    26    31    32    1
    27    32    33    1
    28    33    34    1
    29    34    35    1
    30    35    38    1
    31    38    39    1
    32    39    40    2
    33    39    41   am
    34    41    42    1
    35    42    43    1
    36    43    44    1
    37    44    45    1
    38    35    36   am
    39    36    37    2
    40     8     9   ar
    41     9    10   ar
    42    10     5   ar
    43    27    18   ar
    44    36    30    1
    45    26    21   ar
    46    45    41    1
    47    12    15    1
    48    16    17    1
    49    28    29    1
@<TRIPOS>MOLECULE
*****
 45 49 0 0 0
SMALL
GASTEIGER

@<TRIPOS>ATOM
      1 N          63.1180   87.4705   13.8113 N.am    1  UNL1        0.0007
      2 C          63.4309   88.9328   13.9302 C.2     1  UNL1        0.3851
      3 C          64.1035   86.4506   14.2997 C.2     1  UNL1        0.3433
      4 O          65.3187   86.8873   15.0631 O.2     1  UNL1       -0.2483
      5 C          63.4145   82.0808   13.4751 C.ar    1  UNL1        0.1345
      6 C          63.1555   83.0965   12.4021 C.ar    1  UNL1        0.0240
      7 C          63.3852   84.5531   12.6770 C.ar    1  UNL1        0.0094
      8 C          63.8738   84.9940   14.0249 C.ar    1  UNL1        0.0919
      9 C          64.1328   83.9783   15.0979 C.ar    1  UNL1        0.1051
     10 N          63.9032   82.5218   14.8230 N.ar    1  UNL1       -0.2391
     11 C          62.6319   78.7087   11.5343 C.3     1  UNL1        0.1110
     12 N          62.8616   80.1654   11.8092 N.am    1  UNL1       -0.2979
     13 C          63.1849   80.6242   13.2002 C.2     1  UNL1        0.2636
     14 O          63.2785   79.6265   14.3163 O.2     1  UNL1       -0.2685
     15 H          62.8002   80.8203   11.0767 H       1  UNL1        0.1498
     16 N          64.7291   89.3750   14.5375 N.pl3   1  UNL1       -0.2438
     17 H          65.2443   88.7554   15.1031 H       1  UNL1        0.2647
     18 C          65.2425   90.7613   14.2830 C.ar    1  UNL1        0.1168
     19 C          65.8119   91.5691   15.4113 C.ar    1  UNL1        0.0365
     20 C          66.3252   92.9553   15.1568 C.ar    1  UNL1        0.0404
     21 C          66.2691   93.5338   13.7739 C.ar    1  UNL1        0.1450
     22 O          66.6961   94.8623   13.2236 O.2     1  UNL1       -0.4577
     23 C          66.3906   94.8755   11.7551 C.ar    1  UNL1        0.1233
     24 C          66.6545   96.0099   10.8097 C.3     1  UNL1        0.0725
     25 C          65.7747   93.5552   11.3979 C.ar    1  UNL1        0.0361
     26 C          65.6996   92.7260   12.6456 C.ar    1  UNL1        0.0400
     27 C          65.1863   91.3398   12.9001 C.ar    1  UNL1        0.0365
     28 N          62.4454   89.9527   13.4417 N.pl3   1  UNL1       -0.2585
     29 H          62.0019   90.5548   14.0820 H       1  UNL1        0.2589
     30 C          62.1355   90.0551   11.9776 C.3     1  UNL1        0.2142
     31 C          62.9019   91.0998   11.2218 C.3     1  UNL1        0.0490
     32 C          62.8222   91.4467    9.7645 C.3     1  UNL1        0.0057
     33 C          61.9566   90.8346    8.7034 C.3     1  UNL1        0.0216
     34 C          60.9569   89.7244    8.8373 C.3     1  UNL1        0.0940
     35 N          60.5757   88.9521   10.0655 N.am    1  UNL1       -0.2686
     36 C          61.1003   89.0994   11.4630 C.2     1  UNL1        0.2622
     37 O          60.5118   88.1675   12.4806 O.2     1  UNL1       -0.2712
     38 C          59.5321   87.8926    9.8703 C.3     1  UNL1        0.1794
     39 C          59.5573   87.0324    8.6417 C.2     1  UNL1        0.2459
     40 O          58.3485   86.9527    7.7571 O.2     1  UNL1       -0.2730
     41 N          60.7912   86.2520    8.2977 N.am    1  UNL1       -0.2781
     42 C          62.0693   86.2323    9.0826 C.3     1  UNL1        0.0935
     43 C          63.0316   85.3224    8.3784 C.3     1  UNL1        0.0233
     44 C          62.3483   84.7797    7.1583 C.3     1  UNL1        0.0233
     45 C          60.9637   85.3542    7.1085 C.3     1  UNL1        0.0935
@<TRIPOS>BOND
     1    11    12    1
     2    12    13   am
     3    13    14    2
     4    13     5    1
     5     5     6   ar
     6     6     7   ar
     7     7     8   ar
     8     8     3    1
     9     3     4    2
    10     3     1    1
    11     1     2    2
    12     2    16    1
    13    16    18    1
    14    18    19   ar
    15    19    20   ar
    16    20    21   ar
    17    21    22   ar
    18    22    23   ar
    19    23    24    1
    20    23    25   ar
    21    25    26   ar
    22    26    27   ar
    23     2    28    1
    24    30    28    1
    25    30    31    1
    26    31    32    1
    27    32    33    1
    28    33    34    1
    29    34    35    1
    30    35    38    1
    31    38    39    1
    32    39    40    2
    33    39    41   am
    34    41    42    1
    35    42    43    1
    36    43    44    1
    37    44    45    1
    38    35    36   am
    39    36    37    2
    40     8     9   ar
    41     9    10   ar
    42    10     5   ar
    43    27    18   ar
    44    36    30    1
    45    26    21   ar
    46    45    41    1
    47    12    15    1
    48    16    17    1
    49    28    29    1
