@<TRIPOS>MOLECULE
*****
 27 29 0 0 0
SMALL
GASTEIGER

@<TRIPOS>ATOM
      1 N          68.2186   93.5477   15.4302 N.pl3   1  UNL1       -0.3375
      2 C          67.1887   93.0510   14.4593 C.ar    1  UNL1        0.1568
      3 N          67.0957   93.4181   13.0079 N.ar    1  UNL1       -0.2214
      4 C          65.9204   92.6940   12.4210 C.ar    1  UNL1        0.1227
      5 C          65.3452   92.6712   11.0359 C.ar    1  UNL1        0.1518
      6 O          65.9785   93.4858    9.9472 O.3     1  UNL1       -0.5040
      7 C          64.1365   91.8337   10.7394 C.ar    1  UNL1        0.0427
      8 C          63.5031   91.0191   11.8281 C.ar    1  UNL1        0.0570
      9 C          64.0784   91.0419   13.2133 C.ar    1  UNL1        0.0128
     10 C          65.2870   91.8794   13.5097 C.ar    1  UNL1        0.0528
     11 S          66.0709   92.1000   14.7694 S.2     1  UNL1       -0.0519
     12 H          68.9166   94.1737   15.1299 H       1  UNL1        0.1442
     13 H          68.1966   93.2476   16.3676 H       1  UNL1        0.1442
     14 H          66.7335   94.0089   10.1324 H       1  UNL1        0.2923
     15 C          62.2945   90.1816   11.5317 C.2     1  UNL1        0.2462
     16 O          61.7602   89.2415   12.5712 O.2     1  UNL1       -0.2701
     17 N          61.6202   90.2844   10.1958 N.am    1  UNL1       -0.2969
     18 H          61.9709   90.9014    9.5135 H       1  UNL1        0.1501
     19 C          60.4115   89.4469    9.8993 C.3     1  UNL1        0.1166
     20 C          60.5481   88.1949    9.0846 C.ar    1  UNL1       -0.0017
     21 C          59.4791   87.8194    8.1016 C.ar    1  UNL1       -0.0017
     22 C          59.6157   86.5673    7.2869 C.ar    1  UNL1        0.0120
     23 C          60.8212   85.6908    7.4552 C.ar    1  UNL1        0.0682
     24 CL         60.9577   84.4388    6.6405 Cl      1  UNL1       -0.0814
     25 C          61.8901   86.0662    8.4382 C.ar    1  UNL1        0.0679
     26 CL         63.0956   85.1897    8.6065 Cl      1  UNL1       -0.0814
     27 C          61.7536   87.3182    9.2529 C.ar    1  UNL1        0.0096
@<TRIPOS>BOND
     1     1     2    1
     2     2     3   ar
     3     3     4   ar
     4     4     5   ar
     5     5     6    1
     6     5     7   ar
     7     7     8   ar
     8     8    15    1
     9    15    16    2
    10    15    17   am
    11    17    19    1
    12    19    20    1
    13    20    21   ar
    14    21    22   ar
    15    22    23   ar
    16    23    24    1
    17    23    25   ar
    18    25    26    1
    19    25    27   ar
    20     8     9   ar
    21     9    10   ar
    22    10    11   ar
    23    11     2   ar
    24    10     4   ar
    25    27    20   ar
    26     1    12    1
    27     1    13    1
    28     6    14    1
    29    17    18    1
@<TRIPOS>MOLECULE
*****
 27 29 0 0 0
SMALL
GASTEIGER

@<TRIPOS>ATOM
      1 N          67.4566   93.7722   15.7304 N.pl3   1  UNL1       -0.3375
      2 C          66.5729   93.0715   14.7415 C.ar    1  UNL1        0.1568
      3 N          66.3292   93.4935   13.3228 N.ar    1  UNL1       -0.2214
      4 C          65.3833   92.5086   12.7021 C.ar    1  UNL1        0.1227
      5 C          64.7884   92.4171   11.3282 C.ar    1  UNL1        0.1518
      6 O          65.1294   93.4479   10.2932 O.3     1  UNL1       -0.5040
      7 C          63.8525   91.2949   10.9893 C.ar    1  UNL1        0.0427
      8 C          63.5116   90.2641   12.0243 C.ar    1  UNL1        0.0570
      9 C          64.1065   90.3556   13.3983 C.ar    1  UNL1        0.0128
     10 C          65.0424   91.4778   13.7372 C.ar    1  UNL1        0.0528
     11 S          65.7775   91.8257   14.9975 S.2     1  UNL1       -0.0519
     12 H          67.9405   94.5880   15.4666 H       1  UNL1        0.1442
     13 H          67.5529   93.4163   16.6432 H       1  UNL1        0.1442
     14 H          65.7139   94.1489   10.5049 H       1  UNL1        0.2923
     15 C          62.5758   89.1420   11.6855 C.2     1  UNL1        0.2462
     16 O          61.2609   89.4352   11.0259 O.2     1  UNL1       -0.2701
     17 N          62.9548   87.7266   12.0062 N.am    1  UNL1       -0.2969
     18 H          63.8179   87.5341   12.4391 H       1  UNL1        0.1501
     19 C          62.0190   86.6043   11.6673 C.3     1  UNL1        0.1166
     20 C          61.9087   86.1213   10.2515 C.ar    1  UNL1       -0.0017
     21 C          63.0060   85.2909    9.6547 C.ar    1  UNL1       -0.0017
     22 C          62.8957   84.8079    8.2388 C.ar    1  UNL1        0.0120
     23 C          61.6880   85.1554    7.4198 C.ar    1  UNL1        0.0682
     24 CL         61.5777   84.6724    6.0041 Cl      1  UNL1       -0.0814
     25 C          60.5907   85.9858    8.0167 C.ar    1  UNL1        0.0679
     26 CL         59.3830   86.3333    7.1977 Cl      1  UNL1       -0.0814
     27 C          60.7010   86.4688    9.4325 C.ar    1  UNL1        0.0096
@<TRIPOS>BOND
     1     1     2    1
     2     2     3   ar
     3     3     4   ar
     4     4     5   ar
     5     5     6    1
     6     5     7   ar
     7     7     8   ar
     8     8    15    1
     9    15    16    2
    10    15    17   am
    11    17    19    1
    12    19    20    1
    13    20    21   ar
    14    21    22   ar
    15    22    23   ar
    16    23    24    1
    17    23    25   ar
    18    25    26    1
    19    25    27   ar
    20     8     9   ar
    21     9    10   ar
    22    10    11   ar
    23    11     2   ar
    24    10     4   ar
    25    27    20   ar
    26     1    12    1
    27     1    13    1
    28     6    14    1
    29    17    18    1
@<TRIPOS>MOLECULE
*****
 27 29 0 0 0
SMALL
GASTEIGER

@<TRIPOS>ATOM
      1 N          68.0307   93.8762   15.4609 N.pl3   1  UNL1       -0.3375
      2 C          67.0275   93.1610   14.6053 C.ar    1  UNL1        0.1568
      3 N          66.6419   93.5296   13.2034 N.ar    1  UNL1       -0.2214
      4 C          65.6098   92.5479   12.7331 C.ar    1  UNL1        0.1227
      5 C          64.8672   92.4162   11.4366 C.ar    1  UNL1        0.1518
      6 O          65.1196   93.3915   10.3252 O.3     1  UNL1       -0.5040
      7 C          63.8721   91.3091   11.2513 C.ar    1  UNL1        0.0427
      8 C          63.6197   90.3338   12.3626 C.ar    1  UNL1        0.0570
      9 C          64.3624   90.4656   13.6592 C.ar    1  UNL1        0.0128
     10 C          65.3574   91.5726   13.8445 C.ar    1  UNL1        0.0528
     11 S          66.2336   91.9515   15.0015 S.2     1  UNL1       -0.0519
     12 H          68.5034   94.6653   15.1099 H       1  UNL1        0.1442
     13 H          68.2165   93.5566   16.3733 H       1  UNL1        0.1442
     14 H          65.7411   94.0831   10.4409 H       1  UNL1        0.2923
     15 C          62.6247   89.2267   12.1774 C.2     1  UNL1        0.2462
     16 O          61.1746   89.4633   12.4794 O.2     1  UNL1       -0.2701
     17 N          63.0798   87.8831   11.6901 N.am    1  UNL1       -0.2969
     18 H          64.0316   87.7278   11.4919 H       1  UNL1        0.1501
     19 C          62.0848   86.7760   11.5049 C.3     1  UNL1        0.1166
     20 C          62.4495   85.3696   11.8779 C.ar    1  UNL1       -0.0017
     21 C          62.8758   84.3988   10.8169 C.ar    1  UNL1       -0.0017
     22 C          63.2405   82.9924   11.1901 C.ar    1  UNL1        0.0120
     23 C          63.1789   82.5569   12.6241 C.ar    1  UNL1        0.0682
     24 CL         63.5436   81.1506   12.9972 Cl      1  UNL1       -0.0814
     25 C          62.7526   83.5278   13.6851 C.ar    1  UNL1        0.0679
     26 CL         62.6909   83.0923   15.1191 Cl      1  UNL1       -0.0814
     27 C          62.3879   84.9341   13.3120 C.ar    1  UNL1        0.0096
@<TRIPOS>BOND
     1     1     2    1
     2     2     3   ar
     3     3     4   ar
     4     4     5   ar
     5     5     6    1
     6     5     7   ar
     7     7     8   ar
     8     8    15    1
     9    15    16    2
    10    15    17   am
    11    17    19    1
    12    19    20    1
    13    20    21   ar
    14    21    22   ar
    15    22    23   ar
    16    23    24    1
    17    23    25   ar
    18    25    26    1
    19    25    27   ar
    20     8     9   ar
    21     9    10   ar
    22    10    11   ar
    23    11     2   ar
    24    10     4   ar
    25    27    20   ar
    26     1    12    1
    27     1    13    1
    28     6    14    1
    29    17    18    1
@<TRIPOS>MOLECULE
*****
 27 29 0 0 0
SMALL
GASTEIGER

@<TRIPOS>ATOM
      1 N          63.8278   82.5418   14.4846 N.pl3   1  UNL1       -0.3375
      2 C          63.7733   83.9872   14.8820 C.ar    1  UNL1        0.1568
      3 N          63.1459   84.5357   16.1292 N.ar    1  UNL1       -0.2214
      4 C          63.3214   86.0254   16.1199 C.ar    1  UNL1        0.1227
      5 C          62.9063   87.0909   17.0905 C.ar    1  UNL1        0.1518
      6 O          62.1705   86.7187   18.3435 O.3     1  UNL1       -0.5040
      7 C          63.2270   88.5289   16.8082 C.ar    1  UNL1        0.0427
      8 C          63.9628   88.9011   15.5552 C.ar    1  UNL1        0.0570
      9 C          64.3780   87.8354   14.5845 C.ar    1  UNL1        0.0128
     10 C          64.0573   86.3976   14.8669 C.ar    1  UNL1        0.0528
     11 S          64.3365   85.1379   14.1019 S.2     1  UNL1       -0.0519
     12 H          63.4274   81.8559   15.0664 H       1  UNL1        0.1442
     13 H          64.2639   82.2791   13.6420 H       1  UNL1        0.1442
     14 H          61.9701   85.8206   18.5199 H       1  UNL1        0.2923
     15 C          64.2835   90.3389   15.2728 C.2     1  UNL1        0.2462
     16 O          63.4936   91.4278   15.9363 O.2     1  UNL1       -0.2701
     17 N          65.3941   90.6878   14.3269 N.am    1  UNL1       -0.2969
     18 H          65.9125   89.9730   13.8914 H       1  UNL1        0.1501
     19 C          65.7149   92.1256   14.0444 C.3     1  UNL1        0.1166
     20 C          66.3077   92.5163   12.7231 C.ar    1  UNL1       -0.0017
     21 C          67.4333   91.7146   12.1397 C.ar    1  UNL1       -0.0017
     22 C          68.0262   92.1053   10.8183 C.ar    1  UNL1        0.0120
     23 C          67.4934   93.2976   10.0804 C.ar    1  UNL1        0.0682
     24 CL         68.0863   93.6882    8.7591 Cl      1  UNL1       -0.0814
     25 C          66.3679   94.0993   10.6639 C.ar    1  UNL1        0.0679
     26 CL         65.8351   95.2916    9.9260 Cl      1  UNL1       -0.0814
     27 C          65.7750   93.7087   11.9852 C.ar    1  UNL1        0.0096
@<TRIPOS>BOND
     1     1     2    1
     2     2     3   ar
     3     3     4   ar
     4     4     5   ar
     5     5     6    1
     6     5     7   ar
     7     7     8   ar
     8     8    15    1
     9    15    16    2
    10    15    17   am
    11    17    19    1
    12    19    20    1
    13    20    21   ar
    14    21    22   ar
    15    22    23   ar
    16    23    24    1
    17    23    25   ar
    18    25    26    1
    19    25    27   ar
    20     8     9   ar
    21     9    10   ar
    22    10    11   ar
    23    11     2   ar
    24    10     4   ar
    25    27    20   ar
    26     1    12    1
    27     1    13    1
    28     6    14    1
    29    17    18    1
@<TRIPOS>MOLECULE
*****
 27 29 0 0 0
SMALL
GASTEIGER

@<TRIPOS>ATOM
      1 N          60.4966   85.5181    7.1127 N.pl3   1  UNL1       -0.3375
      2 C          60.8384   86.4570    8.2314 C.ar    1  UNL1        0.1568
      3 N          60.2722   87.8314    8.4331 N.ar    1  UNL1       -0.2214
      4 C          60.8903   88.4103    9.6712 C.ar    1  UNL1        0.1227
      5 C          60.7122   89.7317   10.3582 C.ar    1  UNL1        0.1518
      6 O          59.7641   90.7483    9.7947 O.3     1  UNL1       -0.5040
      7 C          61.4823   90.0366   11.6089 C.ar    1  UNL1        0.0427
      8 C          62.4304   89.0200   12.1724 C.ar    1  UNL1        0.0570
      9 C          62.6085   87.6985   11.4853 C.ar    1  UNL1        0.0128
     10 C          61.8384   87.3937   10.2348 C.ar    1  UNL1        0.0528
     11 S          61.8063   86.1865    9.3449 S.2     1  UNL1       -0.0519
     12 H          59.8455   85.7878    6.4253 H       1  UNL1        0.1442
     13 H          60.9233   84.6321    7.0659 H       1  UNL1        0.1442
     14 H          59.2831   90.5578    9.0134 H       1  UNL1        0.2923
     15 C          63.2005   89.3249   13.4230 C.2     1  UNL1        0.2462
     16 O          64.0357   88.2589   14.0681 O.2     1  UNL1       -0.2701
     17 N          63.1353   90.6956   14.0285 N.am    1  UNL1       -0.2969
     18 H          62.5871   91.3952   13.6051 H       1  UNL1        0.1501
     19 C          63.9054   91.0005   15.2792 C.3     1  UNL1        0.1166
     20 C          65.2989   91.5479   15.1873 C.ar    1  UNL1       -0.0017
     21 C          65.8638   92.3550   16.3184 C.ar    1  UNL1       -0.0017
     22 C          67.2574   92.9023   16.2264 C.ar    1  UNL1        0.0120
     23 C          68.0860   92.6425   15.0033 C.ar    1  UNL1        0.0682
     24 CL         69.4795   93.1899   14.9114 Cl      1  UNL1       -0.0814
     25 C          67.5211   91.8354   13.8722 C.ar    1  UNL1        0.0679
     26 CL         68.3496   91.5757   12.6491 Cl      1  UNL1       -0.0814
     27 C          66.1276   91.2881   13.9641 C.ar    1  UNL1        0.0096
@<TRIPOS>BOND
     1     1     2    1
     2     2     3   ar
     3     3     4   ar
     4     4     5   ar
     5     5     6    1
     6     5     7   ar
     7     7     8   ar
     8     8    15    1
     9    15    16    2
    10    15    17   am
    11    17    19    1
    12    19    20    1
    13    20    21   ar
    14    21    22   ar
    15    22    23   ar
    16    23    24    1
    17    23    25   ar
    18    25    26    1
    19    25    27   ar
    20     8     9   ar
    21     9    10   ar
    22    10    11   ar
    23    11     2   ar
    24    10     4   ar
    25    27    20   ar
    26     1    12    1
    27     1    13    1
    28     6    14    1
    29    17    18    1
@<TRIPOS>MOLECULE
*****
 27 29 0 0 0
SMALL
GASTEIGER

@<TRIPOS>ATOM
      1 N          62.7541   79.3762   13.4310 N.pl3   1  UNL1       -0.3375
      2 C          62.8906   80.8666   13.3303 C.ar    1  UNL1        0.1568
      3 N          63.5572   81.7607   14.3333 N.ar    1  UNL1       -0.2214
      4 C          63.4630   83.1713   13.8319 C.ar    1  UNL1        0.1227
      5 C          63.9436   84.4731   14.4012 C.ar    1  UNL1        0.1518
      6 O          64.6685   84.4955   15.7142 O.3     1  UNL1       -0.5040
      7 C          63.6993   85.7527   13.6575 C.ar    1  UNL1        0.0427
      8 C          62.9744   85.7304   12.3444 C.ar    1  UNL1        0.0570
      9 C          62.4938   84.4284   11.7751 C.ar    1  UNL1        0.0128
     10 C          62.7381   83.1489   12.5188 C.ar    1  UNL1        0.0528
     11 S          62.3843   81.7246   12.2089 S.2     1  UNL1       -0.0519
     12 H          63.1214   78.8998   14.2104 H       1  UNL1        0.1442
     13 H          62.2973   78.8744   12.7177 H       1  UNL1        0.1442
     14 H          64.8211   83.6962   16.1788 H       1  UNL1        0.2923
     15 C          62.7301   87.0099   11.6007 C.2     1  UNL1        0.2462
     16 O          62.4009   86.9759   10.1377 O.2     1  UNL1       -0.2701
     17 N          62.8150   88.3234   12.3201 N.am    1  UNL1       -0.2969
     18 H          63.0311   88.3457   13.2803 H       1  UNL1        0.1501
     19 C          62.5707   89.6030   11.5764 C.3     1  UNL1        0.1166
     20 C          63.5502   90.7336   11.6871 C.ar    1  UNL1       -0.0017
     21 C          63.8299   91.6029   10.4971 C.ar    1  UNL1       -0.0017
     22 C          64.8095   92.7335   10.6080 C.ar    1  UNL1        0.0120
     23 C          65.5093   92.9948   11.9087 C.ar    1  UNL1        0.0682
     24 CL         66.4888   94.1253   12.0195 Cl      1  UNL1       -0.0814
     25 C          65.2296   92.1254   13.0987 C.ar    1  UNL1        0.0679
     26 CL         65.9294   92.3867   14.3994 Cl      1  UNL1       -0.0814
     27 C          64.2501   90.9948   12.9879 C.ar    1  UNL1        0.0096
@<TRIPOS>BOND
     1     1     2    1
     2     2     3   ar
     3     3     4   ar
     4     4     5   ar
     5     5     6    1
     6     5     7   ar
     7     7     8   ar
     8     8    15    1
     9    15    16    2
    10    15    17   am
    11    17    19    1
    12    19    20    1
    13    20    21   ar
    14    21    22   ar
    15    22    23   ar
    16    23    24    1
    17    23    25   ar
    18    25    26    1
    19    25    27   ar
    20     8     9   ar
    21     9    10   ar
    22    10    11   ar
    23    11     2   ar
    24    10     4   ar
    25    27    20   ar
    26     1    12    1
    27     1    13    1
    28     6    14    1
    29    17    18    1
@<TRIPOS>MOLECULE
*****
 27 29 0 0 0
SMALL
GASTEIGER

@<TRIPOS>ATOM
      1 N          62.6012   79.2744   12.5657 N.pl3   1  UNL1       -0.3375
      2 C          62.8113   80.7458   12.7679 C.ar    1  UNL1        0.1568
      3 N          63.4590   81.3885   13.9585 N.ar    1  UNL1       -0.2214
      4 C          63.4586   82.8727   13.7415 C.ar    1  UNL1        0.1227
      5 C          63.9645   84.0097   14.5790 C.ar    1  UNL1        0.1518
      6 O          64.6125   83.7351   15.9036 O.3     1  UNL1       -0.5040
      7 C          63.8225   85.4213   14.0918 C.ar    1  UNL1        0.0427
      8 C          63.1745   85.6959   12.7672 C.ar    1  UNL1        0.0570
      9 C          62.6685   84.5589   11.9297 C.ar    1  UNL1        0.0128
     10 C          62.8106   83.1473   12.4169 C.ar    1  UNL1        0.0528
     11 S          62.4105   81.8328   11.8152 S.2     1  UNL1       -0.0519
     12 H          62.9006   78.6355   13.2523 H       1  UNL1        0.1442
     13 H          62.1639   78.9476   11.7464 H       1  UNL1        0.1442
     14 H          64.7013   82.8533   16.2079 H       1  UNL1        0.2923
     15 C          63.0324   87.1074   12.2800 C.2     1  UNL1        0.2462
     16 O          62.3649   87.3835   10.9654 O.2     1  UNL1       -0.2701
     17 N          63.5579   88.2428   13.1074 N.am    1  UNL1       -0.2969
     18 H          63.9960   88.0616   13.9702 H       1  UNL1        0.1501
     19 C          63.4158   89.6544   12.6202 C.3     1  UNL1        0.1166
     20 C          64.3603   90.7139   13.1054 C.ar    1  UNL1       -0.0017
     21 C          64.9176   90.6420   14.4962 C.ar    1  UNL1       -0.0017
     22 C          65.8622   91.7015   14.9814 C.ar    1  UNL1        0.0120
     23 C          66.2493   92.8329   14.0758 C.ar    1  UNL1        0.0682
     24 CL         67.1937   93.8924   14.5610 Cl      1  UNL1       -0.0814
     25 C          65.6919   92.9048   12.6851 C.ar    1  UNL1        0.0679
     26 CL         66.0790   94.0362   11.7795 Cl      1  UNL1       -0.0814
     27 C          64.7474   91.8454   12.1999 C.ar    1  UNL1        0.0096
@<TRIPOS>BOND
     1     1     2    1
     2     2     3   ar
     3     3     4   ar
     4     4     5   ar
     5     5     6    1
     6     5     7   ar
     7     7     8   ar
     8     8    15    1
     9    15    16    2
    10    15    17   am
    11    17    19    1
    12    19    20    1
    13    20    21   ar
    14    21    22   ar
    15    22    23   ar
    16    23    24    1
    17    23    25   ar
    18    25    26    1
    19    25    27   ar
    20     8     9   ar
    21     9    10   ar
    22    10    11   ar
    23    11     2   ar
    24    10     4   ar
    25    27    20   ar
    26     1    12    1
    27     1    13    1
    28     6    14    1
    29    17    18    1
@<TRIPOS>MOLECULE
*****
 27 29 0 0 0
SMALL
GASTEIGER

@<TRIPOS>ATOM
      1 N          58.9246   86.6422    7.6920 N.pl3   1  UNL1       -0.3375
      2 C          59.8934   87.1738    8.7065 C.ar    1  UNL1        0.1568
      3 N          60.5999   86.3693    9.7570 N.ar    1  UNL1       -0.2214
      4 C          61.4688   87.3014   10.5483 C.ar    1  UNL1        0.1227
      5 C          62.3925   87.0714   11.7076 C.ar    1  UNL1        0.1518
      6 O          62.5619   85.6909   12.2691 O.3     1  UNL1       -0.5040
      7 C          63.1468   88.2221   12.3053 C.ar    1  UNL1        0.0427
      8 C          62.9774   89.6026   11.7437 C.ar    1  UNL1        0.0570
      9 C          62.0537   89.8325   10.5844 C.ar    1  UNL1        0.0128
     10 C          61.2994   88.6820    9.9867 C.ar    1  UNL1        0.0528
     11 S          60.3257   88.6031    8.8484 S.2     1  UNL1       -0.0519
     12 H          58.7030   85.6831    7.6784 H       1  UNL1        0.1442
     13 H          58.5104   87.2525    7.0399 H       1  UNL1        0.1442
     14 H          62.0907   84.9722   11.8958 H       1  UNL1        0.2923
     15 C          63.7316   90.7532   12.3414 C.2     1  UNL1        0.2462
     16 O          63.6441   91.0231   13.8143 O.2     1  UNL1       -0.2701
     17 N          64.5732   91.6338   11.4662 N.am    1  UNL1       -0.2969
     18 H          64.6306   91.4566   10.4995 H       1  UNL1        0.1501
     19 C          65.3275   92.7845   12.0638 C.3     1  UNL1        0.1166
     20 C          65.9737   93.8022   11.1713 C.ar    1  UNL1       -0.0017
     21 C          65.7930   95.2652   11.4483 C.ar    1  UNL1       -0.0017
     22 C          66.4393   96.2830   10.5557 C.ar    1  UNL1        0.0120
     23 C          67.2662   95.8376    9.3862 C.ar    1  UNL1        0.0682
     24 CL         67.9125   96.8553    8.4937 Cl      1  UNL1       -0.0814
     25 C          67.4470   94.3745    9.1093 C.ar    1  UNL1        0.0679
     26 CL         68.2739   93.9291    7.9398 Cl      1  UNL1       -0.0814
     27 C          66.8008   93.3568   10.0018 C.ar    1  UNL1        0.0096
@<TRIPOS>BOND
     1     1     2    1
     2     2     3   ar
     3     3     4   ar
     4     4     5   ar
     5     5     6    1
     6     5     7   ar
     7     7     8   ar
     8     8    15    1
     9    15    16    2
    10    15    17   am
    11    17    19    1
    12    19    20    1
    13    20    21   ar
    14    21    22   ar
    15    22    23   ar
    16    23    24    1
    17    23    25   ar
    18    25    26    1
    19    25    27   ar
    20     8     9   ar
    21     9    10   ar
    22    10    11   ar
    23    11     2   ar
    24    10     4   ar
    25    27    20   ar
    26     1    12    1
    27     1    13    1
    28     6    14    1
    29    17    18    1
@<TRIPOS>MOLECULE
*****
 27 29 0 0 0
SMALL
GASTEIGER

@<TRIPOS>ATOM
      1 N          63.0327   79.8259    9.5929 N.pl3   1  UNL1       -0.3375
      2 C          63.1345   80.8296   10.7030 C.ar    1  UNL1        0.1568
      3 N          62.4547   80.7406   12.0371 N.ar    1  UNL1       -0.2214
      4 C          62.8339   81.9545   12.8325 C.ar    1  UNL1        0.1227
      5 C          62.4649   82.4041   14.2151 C.ar    1  UNL1        0.1518
      6 O          61.5507   81.5649   15.0577 O.3     1  UNL1       -0.5040
      7 C          63.0102   83.6930   14.7552 C.ar    1  UNL1        0.0427
      8 C          63.9244   84.5322   13.9127 C.ar    1  UNL1        0.0570
      9 C          64.2934   84.0825   12.5300 C.ar    1  UNL1        0.0128
     10 C          63.7482   82.7937   11.9899 C.ar    1  UNL1        0.0528
     11 S          63.9339   82.0984   10.6738 S.2     1  UNL1       -0.0519
     12 H          62.4797   79.0195    9.7075 H       1  UNL1        0.1442
     13 H          63.5190   79.9735    8.7497 H       1  UNL1        0.1442
     14 H          61.2101   80.7598   14.7203 H       1  UNL1        0.2923
     15 C          64.4697   85.8209   14.4527 C.2     1  UNL1        0.2462
     16 O          65.8822   85.8866   14.9531 O.2     1  UNL1       -0.2701
     17 N          63.6024   87.0441   14.4923 N.am    1  UNL1       -0.2969
     18 H          62.6753   87.0010   14.1639 H       1  UNL1        0.1501
     19 C          64.1476   88.3330   15.0324 C.3     1  UNL1        0.1166
     20 C          64.3659   89.4984   14.1137 C.ar    1  UNL1       -0.0017
     21 C          65.4091   90.5256   14.4401 C.ar    1  UNL1       -0.0017
     22 C          65.6274   91.6911   13.5213 C.ar    1  UNL1        0.0120
     23 C          64.8025   91.8294   12.2763 C.ar    1  UNL1        0.0682
     24 CL         65.0208   92.9949   11.3576 Cl      1  UNL1       -0.0814
     25 C          63.7592   90.8022   11.9498 C.ar    1  UNL1        0.0679
     26 CL         62.9343   90.9405   10.7048 Cl      1  UNL1       -0.0814
     27 C          63.5409   89.6368   12.8685 C.ar    1  UNL1        0.0096
@<TRIPOS>BOND
     1     1     2    1
     2     2     3   ar
     3     3     4   ar
     4     4     5   ar
     5     5     6    1
     6     5     7   ar
     7     7     8   ar
     8     8    15    1
     9    15    16    2
    10    15    17   am
    11    17    19    1
    12    19    20    1
    13    20    21   ar
    14    21    22   ar
    15    22    23   ar
    16    23    24    1
    17    23    25   ar
    18    25    26    1
    19    25    27   ar
    20     8     9   ar
    21     9    10   ar
    22    10    11   ar
    23    11     2   ar
    24    10     4   ar
    25    27    20   ar
    26     1    12    1
    27     1    13    1
    28     6    14    1
    29    17    18    1
