@<TRIPOS>MOLECULE
*****
 29 32 0 0 0
SMALL
GASTEIGER

@<TRIPOS>ATOM
      1 C          63.1311   90.2212   11.8703 C.2     1  UNL1        0.2651
      2 O          62.4419   89.8038   13.1354 O.2     1  UNL1       -0.2684
      3 N          62.8343   89.5085   10.5842 N.am    1  UNL1       -0.2996
      4 H          63.2866   89.7824    9.7538 H       1  UNL1        0.1498
      5 C          65.5010   93.2204   11.1968 C.ar    1  UNL1        0.1239
      6 N          64.4807   92.2259   10.7279 N.ar    1  UNL1       -0.2260
      7 C          64.1172   91.3514   11.8912 C.ar    1  UNL1        0.1517
      8 C          64.9128   91.8055   13.0790 C.ar    1  UNL1        0.0872
      9 C          64.9689   91.3164   14.4958 C.ar    1  UNL1        0.0193
     10 C          65.8804   91.9824   15.4836 C.ar    1  UNL1        0.0031
     11 C          66.7357   93.1375   15.0544 C.ar    1  UNL1        0.0191
     12 C          66.6795   93.6266   13.6375 C.ar    1  UNL1        0.0811
     13 N          65.7681   92.9606   12.6498 N.ar    1  UNL1       -0.2921
     14 C          67.2784   93.9409    9.4440 C.3     1  UNL1        0.0079
     15 C          66.1418   94.2874   10.3597 C.3     1  UNL1        0.0573
     16 C          65.6462   95.7009   10.4380 C.3     1  UNL1        0.0079
     17 C          61.8482   88.3783   10.5634 C.3     1  UNL1        0.0898
     18 C          62.2330   87.0371   11.1139 C.3     1  UNL1        0.0224
     19 C          62.2869   85.5442   10.9786 C.3     1  UNL1        0.0191
     20 C          62.4802   84.0638   11.1239 C.3     1  UNL1        0.0722
     21 N          63.1582   83.8116   12.4379 N.3     1  UNL1       -0.2707
     22 C          63.3840   85.1361   13.1047 C.3     1  UNL1        0.0722
     23 C          62.8455   86.2069   12.2028 C.3     1  UNL1        0.0191
     24 C          63.5430   82.4704   12.9883 C.3     1  UNL1        0.0993
     25 C          62.4798   81.4904   13.3872 C.3     1  UNL1        0.1031
     26 C          62.8377   80.6251   12.2153 C.3     1  UNL1        0.0307
     27 C          62.1218   82.3556   14.5590 C.3     1  UNL1        0.0307
     28 O          61.4165   80.5103   13.7860 O.3     1  UNL1       -0.3854
     29 H          61.4056   79.7715   13.1575 H       1  UNL1        0.2103
@<TRIPOS>BOND
     1    14    15    1
     2    15    16    1
     3    15     5    1
     4     5     6   ar
     5     6     7   ar
     6     7     1    1
     7     1     2    2
     8     1     3   am
     9     3    17    1
    10    18    17    1
    11    18    19    1
    12    19    20    1
    13    20    21    1
    14    21    24    1
    15    24    25    1
    16    25    26    1
    17    25    27    1
    18    25    28    1
    19    21    22    1
    20    23    22    1
    21     7     8   ar
    22     8     9   ar
    23     9    10   ar
    24    10    11   ar
    25    11    12   ar
    26    12    13   ar
    27    13     5   ar
    28    23    18    1
    29    13     8   ar
    30    23    19    1
    31     3     4    1
    32    28    29    1
@<TRIPOS>MOLECULE
*****
 29 32 0 0 0
SMALL
GASTEIGER

@<TRIPOS>ATOM
      1 C          62.8232   88.9625   11.9812 C.2     1  UNL1        0.2651
      2 O          62.0236   90.2037   11.7169 O.2     1  UNL1       -0.2684
      3 N          63.8967   88.9708   13.0290 N.am    1  UNL1       -0.2996
      4 H          64.4215   88.1562   13.2025 H       1  UNL1        0.1498
      5 C          61.9160   86.2050    9.4047 C.ar    1  UNL1        0.1239
      6 N          62.0451   87.6498    9.7865 N.ar    1  UNL1       -0.2260
      7 C          62.5495   87.7129   11.1978 C.ar    1  UNL1        0.1517
      8 C          62.7322   86.3072   11.6881 C.ar    1  UNL1        0.0872
      9 C          63.2045   85.7553   13.0005 C.ar    1  UNL1        0.0193
     10 C          63.2852   84.2715   13.2047 C.ar    1  UNL1        0.0031
     11 C          62.8937   83.3395   12.0965 C.ar    1  UNL1        0.0191
     12 C          62.4214   83.8914   10.7841 C.ar    1  UNL1        0.0811
     13 N          62.3407   85.3752   10.5799 N.ar    1  UNL1       -0.2921
     14 C          60.0397   85.9453    7.6264 C.3     1  UNL1        0.0079
     15 C          61.4450   85.6818    8.0802 C.3     1  UNL1        0.0573
     16 C          62.3791   84.8950    7.2094 C.3     1  UNL1        0.0079
     17 C          64.1704   90.2204   13.8124 C.3     1  UNL1        0.0898
     18 C          64.7637   91.4178   13.1311 C.3     1  UNL1        0.0224
     19 C          64.9530   92.2489   11.8969 C.3     1  UNL1        0.0191
     20 C          65.3168   93.2606   10.8507 C.3     1  UNL1        0.0722
     21 N          66.1904   94.2974   11.4925 N.3     1  UNL1       -0.2707
     22 C          66.3666   93.9266   12.9352 C.3     1  UNL1        0.0722
     23 C          65.6019   92.6605   13.1851 C.3     1  UNL1        0.0191
     24 C          66.7836   95.4948   10.8111 C.3     1  UNL1        0.0993
     25 C          66.4364   95.7935    9.3827 C.3     1  UNL1        0.1031
     26 C          67.6360   95.0159    8.9285 C.3     1  UNL1        0.0307
     27 C          65.2368   96.5710    9.8370 C.3     1  UNL1        0.0307
     28 O          66.0892   96.0922    7.9544 O.3     1  UNL1       -0.3854
     29 H          66.7457   95.6825    7.3696 H       1  UNL1        0.2103
@<TRIPOS>BOND
     1    14    15    1
     2    15    16    1
     3    15     5    1
     4     5     6   ar
     5     6     7   ar
     6     7     1    1
     7     1     2    2
     8     1     3   am
     9     3    17    1
    10    18    17    1
    11    18    19    1
    12    19    20    1
    13    20    21    1
    14    21    24    1
    15    24    25    1
    16    25    26    1
    17    25    27    1
    18    25    28    1
    19    21    22    1
    20    23    22    1
    21     7     8   ar
    22     8     9   ar
    23     9    10   ar
    24    10    11   ar
    25    11    12   ar
    26    12    13   ar
    27    13     5   ar
    28    23    18    1
    29    13     8   ar
    30    23    19    1
    31     3     4    1
    32    28    29    1
@<TRIPOS>MOLECULE
*****
 29 32 0 0 0
SMALL
GASTEIGER

@<TRIPOS>ATOM
      1 C          63.0465   89.1781   12.4501 C.2     1  UNL1        0.2651
      2 O          62.2728   90.3969   12.0431 O.2     1  UNL1       -0.2684
      3 N          64.1296   89.2874   13.4822 N.am    1  UNL1       -0.2996
      4 H          64.6375   88.4874   13.7493 H       1  UNL1        0.1498
      5 C          62.6814   85.4644   11.3821 C.ar    1  UNL1        0.1239
      6 N          63.2350   86.5161   12.2973 N.ar    1  UNL1       -0.2260
      7 C          62.7373   87.8500   11.8251 C.ar    1  UNL1        0.1517
      8 C          61.8761   87.6227   10.6181 C.ar    1  UNL1        0.0872
      9 C          61.1190   88.5678    9.7330 C.ar    1  UNL1        0.0193
     10 C          60.3273   88.0385    8.5741 C.ar    1  UNL1        0.0031
     11 C          60.2928   86.5641    8.3004 C.ar    1  UNL1        0.0191
     12 C          61.0499   85.6190    9.1855 C.ar    1  UNL1        0.0811
     13 N          61.8416   86.1483   10.3444 N.ar    1  UNL1       -0.2921
     14 C          63.6030   83.2586   10.3647 C.3     1  UNL1        0.0079
     15 C          62.9249   83.9880   11.4864 C.3     1  UNL1        0.0573
     16 C          62.4904   83.2409   12.7123 C.3     1  UNL1        0.0079
     17 C          64.4388   90.6154   14.1072 C.3     1  UNL1        0.0898
     18 C          65.0176   91.7199   13.2736 C.3     1  UNL1        0.0224
     19 C          65.7933   92.9997   13.1705 C.3     1  UNL1        0.0191
     20 C          66.5134   94.2499   12.7601 C.3     1  UNL1        0.0722
     21 N          66.4098   94.3763   11.2690 N.3     1  UNL1       -0.2707
     22 C          65.6256   93.2042   10.7578 C.3     1  UNL1        0.0722
     23 C          65.2446   92.3534   11.9330 C.3     1  UNL1        0.0191
     24 C          66.9887   95.4809   10.4355 C.3     1  UNL1        0.0993
     25 C          66.2469   95.9789    9.2306 C.3     1  UNL1        0.1031
     26 C          67.2341   95.2881    8.3373 C.3     1  UNL1        0.0307
     27 C          65.2597   96.6698   10.1240 C.3     1  UNL1        0.0307
     28 O          65.5051   96.4770    8.0258 O.3     1  UNL1       -0.3854
     29 H          65.9470   96.1631    7.2214 H       1  UNL1        0.2103
@<TRIPOS>BOND
     1    14    15    1
     2    15    16    1
     3    15     5    1
     4     5     6   ar
     5     6     7   ar
     6     7     1    1
     7     1     2    2
     8     1     3   am
     9     3    17    1
    10    18    17    1
    11    18    19    1
    12    19    20    1
    13    20    21    1
    14    21    24    1
    15    24    25    1
    16    25    26    1
    17    25    27    1
    18    25    28    1
    19    21    22    1
    20    23    22    1
    21     7     8   ar
    22     8     9   ar
    23     9    10   ar
    24    10    11   ar
    25    11    12   ar
    26    12    13   ar
    27    13     5   ar
    28    23    18    1
    29    13     8   ar
    30    23    19    1
    31     3     4    1
    32    28    29    1
@<TRIPOS>MOLECULE
*****
 29 32 0 0 0
SMALL
GASTEIGER

@<TRIPOS>ATOM
      1 C          62.3822   86.8501   11.1225 C.2     1  UNL1        0.2651
      2 O          62.0410   86.9639    9.6663 O.2     1  UNL1       -0.2684
      3 N          62.4067   88.0771   11.9851 N.am    1  UNL1       -0.2996
      4 H          62.6306   88.0025   12.9409 H       1  UNL1        0.1498
      5 C          62.8979   83.1104   12.0245 C.ar    1  UNL1        0.1239
      6 N          62.4186   84.1776   11.0857 N.ar    1  UNL1       -0.2260
      7 C          62.6988   85.5095   11.7162 C.ar    1  UNL1        0.1517
      8 C          63.3513   85.2655   13.0447 C.ar    1  UNL1        0.0872
      9 C          63.8493   86.2018   14.1054 C.ar    1  UNL1        0.0193
     10 C          64.4703   85.6554   15.3567 C.ar    1  UNL1        0.0031
     11 C          64.5934   84.1727   15.5472 C.ar    1  UNL1        0.0191
     12 C          64.0954   83.2363   14.4865 C.ar    1  UNL1        0.0811
     13 N          63.4744   83.7827   13.2352 N.ar    1  UNL1       -0.2921
     14 C          62.3444   80.7249   12.8924 C.3     1  UNL1        0.0079
     15 C          62.8153   81.6306   11.7933 C.3     1  UNL1        0.0573
     16 C          63.2036   81.0565   10.4631 C.3     1  UNL1        0.0079
     17 C          62.0900   89.4177   11.3914 C.3     1  UNL1        0.0898
     18 C          63.1144   90.5130   11.4235 C.3     1  UNL1        0.0224
     19 C          64.1318   91.3183   12.1760 C.3     1  UNL1        0.0191
     20 C          65.1866   92.2716   12.6544 C.3     1  UNL1        0.0722
     21 N          65.5779   93.1469   11.5009 N.3     1  UNL1       -0.2707
     22 C          64.7650   92.7347   10.3096 C.3     1  UNL1        0.0722
     23 C          63.8713   91.6046   10.7268 C.3     1  UNL1        0.0191
     24 C          66.6023   94.2422   11.5331 C.3     1  UNL1        0.0993
     25 C          66.7057   95.2062   10.3886 C.3     1  UNL1        0.1031
     26 C          67.5943   94.2436    9.6580 C.3     1  UNL1        0.0307
     27 C          65.8172   96.1689   11.1191 C.3     1  UNL1        0.0307
     28 O          66.8092   96.1703    9.2441 O.3     1  UNL1       -0.3854
     29 H          67.3732   95.7912    8.5519 H       1  UNL1        0.2103
@<TRIPOS>BOND
     1    14    15    1
     2    15    16    1
     3    15     5    1
     4     5     6   ar
     5     6     7   ar
     6     7     1    1
     7     1     2    2
     8     1     3   am
     9     3    17    1
    10    18    17    1
    11    18    19    1
    12    19    20    1
    13    20    21    1
    14    21    24    1
    15    24    25    1
    16    25    26    1
    17    25    27    1
    18    25    28    1
    19    21    22    1
    20    23    22    1
    21     7     8   ar
    22     8     9   ar
    23     9    10   ar
    24    10    11   ar
    25    11    12   ar
    26    12    13   ar
    27    13     5   ar
    28    23    18    1
    29    13     8   ar
    30    23    19    1
    31     3     4    1
    32    28    29    1
@<TRIPOS>MOLECULE
*****
 29 32 0 0 0
SMALL
GASTEIGER

@<TRIPOS>ATOM
      1 C          64.1808   88.4707   14.9670 C.2     1  UNL1        0.2651
      2 O          64.7962   87.1607   14.5736 O.2     1  UNL1       -0.2684
      3 N          63.2703   88.5443   16.1569 N.am    1  UNL1       -0.2996
      4 H          62.8663   89.4042   16.4151 H       1  UNL1        0.1498
      5 C          65.3941   91.8462   13.4841 C.ar    1  UNL1        0.1239
      6 N          65.4009   90.8164   14.5747 N.ar    1  UNL1       -0.2260
      7 C          64.4756   89.7072   14.1706 C.ar    1  UNL1        0.1517
      8 C          63.8969   90.0514   12.8302 C.ar    1  UNL1        0.0872
      9 C          62.9264   89.3318   11.9412 C.ar    1  UNL1        0.0193
     10 C          62.5236   89.9343   10.6279 C.ar    1  UNL1        0.0031
     11 C          63.0912   91.2563   10.2037 C.ar    1  UNL1        0.0191
     12 C          64.0617   91.9759   11.0926 C.ar    1  UNL1        0.0811
     13 N          64.4646   91.3734   12.4059 N.ar    1  UNL1       -0.2921
     14 C          66.9222   93.5584   14.7021 C.3     1  UNL1        0.0079
     15 C          66.1789   93.1244   13.4735 C.3     1  UNL1        0.0573
     16 C          66.2206   93.9687   12.2344 C.3     1  UNL1        0.0079
     17 C          62.9754   87.3079   16.9533 C.3     1  UNL1        0.0898
     18 C          63.1151   85.9560   16.3186 C.3     1  UNL1        0.0224
     19 C          62.4906   84.7406   15.7000 C.3     1  UNL1        0.0191
     20 C          62.1627   83.4272   15.0538 C.3     1  UNL1        0.0722
     21 N          63.4510   82.7049   14.7922 N.3     1  UNL1       -0.2707
     22 C          64.5751   83.5717   15.2768 C.3     1  UNL1        0.0722
     23 C          63.9816   84.8299   15.8378 C.3     1  UNL1        0.0191
     24 C          63.5906   81.3530   14.1575 C.3     1  UNL1        0.0993
     25 C          63.1890   81.1512   12.7264 C.3     1  UNL1        0.1031
     26 C          64.2076   82.1655   12.2976 C.3     1  UNL1        0.0307
     27 C          62.1705   80.1370   13.1552 C.3     1  UNL1        0.0307
     28 O          62.7874   80.9495   11.2953 O.3     1  UNL1       -0.3854
     29 H          63.3218   81.5244   10.7254 H       1  UNL1        0.2103
@<TRIPOS>BOND
     1    14    15    1
     2    15    16    1
     3    15     5    1
     4     5     6   ar
     5     6     7   ar
     6     7     1    1
     7     1     2    2
     8     1     3   am
     9     3    17    1
    10    18    17    1
    11    18    19    1
    12    19    20    1
    13    20    21    1
    14    21    24    1
    15    24    25    1
    16    25    26    1
    17    25    27    1
    18    25    28    1
    19    21    22    1
    20    23    22    1
    21     7     8   ar
    22     8     9   ar
    23     9    10   ar
    24    10    11   ar
    25    11    12   ar
    26    12    13   ar
    27    13     5   ar
    28    23    18    1
    29    13     8   ar
    30    23    19    1
    31     3     4    1
    32    28    29    1
@<TRIPOS>MOLECULE
*****
 29 32 0 0 0
SMALL
GASTEIGER

@<TRIPOS>ATOM
      1 C          60.3285   87.0266    8.6931 C.2     1  UNL1        0.2651
      2 O          60.0132   85.8869    7.7704 O.2     1  UNL1       -0.2684
      3 N          59.7601   88.3886    8.4242 N.am    1  UNL1       -0.2996
      4 H          59.9670   89.1367    9.0298 H       1  UNL1        0.1498
      5 C          62.4726   85.7224   11.6540 C.ar    1  UNL1        0.1239
      6 N          61.5708   85.4758   10.4810 N.ar    1  UNL1       -0.2260
      7 C          61.2122   86.8046    9.8846 C.ar    1  UNL1        0.1517
      8 C          61.8924   87.8725   10.6890 C.ar    1  UNL1        0.0872
      9 C          61.9030   89.3675   10.5670 C.ar    1  UNL1        0.0193
     10 C          62.6927   90.1936   11.5385 C.ar    1  UNL1        0.0031
     11 C          63.4717   89.5247   12.6321 C.ar    1  UNL1        0.0191
     12 C          63.4610   88.0298   12.7541 C.ar    1  UNL1        0.0811
     13 N          62.6714   87.2037   11.7826 N.ar    1  UNL1       -0.2921
     14 C          62.6585   84.5842   13.9821 C.3     1  UNL1        0.0079
     15 C          63.0707   84.6722   12.5424 C.3     1  UNL1        0.0573
     16 C          64.0809   83.7102   11.9914 C.3     1  UNL1        0.0079
     17 C          58.8764   88.6106    7.2326 C.3     1  UNL1        0.0898
     18 C          59.1941   89.7046    6.2568 C.3     1  UNL1        0.0224
     19 C          58.7492   90.8622    5.4130 C.3     1  UNL1        0.0191
     20 C          58.6063   92.0326    4.4857 C.3     1  UNL1        0.0722
     21 N          59.9580   92.3357    3.9102 N.3     1  UNL1       -0.2707
     22 C          60.9362   91.3527    4.4818 C.3     1  UNL1        0.0722
     23 C          60.1891   90.4420    5.4106 C.3     1  UNL1        0.0191
     24 C          60.2755   93.4298    2.9345 C.3     1  UNL1        0.0993
     25 C          60.7442   93.0882    1.5511 C.3     1  UNL1        0.1031
     26 C          62.1649   93.0884    2.0324 C.3     1  UNL1        0.0307
     27 C          59.3235   93.0880    1.0698 C.3     1  UNL1        0.0307
     28 O          61.2129   92.7466    0.1678 O.3     1  UNL1       -0.3854
     29 H          62.1801   92.6731    0.1630 H       1  UNL1        0.2103
@<TRIPOS>BOND
     1    14    15    1
     2    15    16    1
     3    15     5    1
     4     5     6   ar
     5     6     7   ar
     6     7     1    1
     7     1     2    2
     8     1     3   am
     9     3    17    1
    10    18    17    1
    11    18    19    1
    12    19    20    1
    13    20    21    1
    14    21    24    1
    15    24    25    1
    16    25    26    1
    17    25    27    1
    18    25    28    1
    19    21    22    1
    20    23    22    1
    21     7     8   ar
    22     8     9   ar
    23     9    10   ar
    24    10    11   ar
    25    11    12   ar
    26    12    13   ar
    27    13     5   ar
    28    23    18    1
    29    13     8   ar
    30    23    19    1
    31     3     4    1
    32    28    29    1
@<TRIPOS>MOLECULE
*****
 29 32 0 0 0
SMALL
GASTEIGER

@<TRIPOS>ATOM
      1 C          62.0803   87.1648   11.2134 C.2     1  UNL1        0.2651
      2 O          61.6057   87.2960    9.7966 O.2     1  UNL1       -0.2684
      3 N          62.2845   88.3914   12.0525 N.am    1  UNL1       -0.2996
      4 H          62.5960   88.3054   12.9825 H       1  UNL1        0.1498
      5 C          62.4823   83.9412   13.3375 C.ar    1  UNL1        0.1239
      6 N          62.0492   85.3701   13.1941 N.ar    1  UNL1       -0.2260
      7 C          62.3507   85.8073   11.7913 C.ar    1  UNL1        0.1517
      8 C          62.9701   84.6485   11.0676 C.ar    1  UNL1        0.0872
      9 C          63.4706   84.4946    9.6620 C.ar    1  UNL1        0.0193
     10 C          64.0524   83.1873    9.2121 C.ar    1  UNL1        0.0031
     11 C          64.1337   82.0340   10.1677 C.ar    1  UNL1        0.0191
     12 C          63.6332   82.1879   11.5733 C.ar    1  UNL1        0.0811
     13 N          63.0514   83.4952   12.0233 N.ar    1  UNL1       -0.2921
     14 C          62.7797   83.6699   15.9043 C.3     1  UNL1        0.0079
     15 C          62.3665   83.1050   14.5774 C.3     1  UNL1        0.0573
     16 C          61.8377   81.7041   14.4907 C.3     1  UNL1        0.0079
     17 C          62.0141   89.7490   11.4747 C.3     1  UNL1        0.0898
     18 C          63.1044   90.7784   11.4362 C.3     1  UNL1        0.0224
     19 C          64.2144   91.5210   12.1192 C.3     1  UNL1        0.0191
     20 C          65.3538   92.4081   12.5252 C.3     1  UNL1        0.0722
     21 N          65.7265   93.2540   11.3439 N.3     1  UNL1       -0.2707
     22 C          64.8175   92.8898   10.2077 C.3     1  UNL1        0.0722
     23 C          63.8829   91.8187   10.6869 C.3     1  UNL1        0.0191
     24 C          66.8168   94.2834   11.3056 C.3     1  UNL1        0.0993
     25 C          67.0410   95.0925   10.0626 C.3     1  UNL1        0.1031
     26 C          67.8395   93.9672    9.4742 C.3     1  UNL1        0.0307
     27 C          66.2425   96.2177   10.6509 C.3     1  UNL1        0.0307
     28 O          67.2652   95.9015    8.8195 O.3     1  UNL1       -0.3854
     29 H          67.8004   95.3899    8.1928 H       1  UNL1        0.2103
@<TRIPOS>BOND
     1    14    15    1
     2    15    16    1
     3    15     5    1
     4     5     6   ar
     5     6     7   ar
     6     7     1    1
     7     1     2    2
     8     1     3   am
     9     3    17    1
    10    18    17    1
    11    18    19    1
    12    19    20    1
    13    20    21    1
    14    21    24    1
    15    24    25    1
    16    25    26    1
    17    25    27    1
    18    25    28    1
    19    21    22    1
    20    23    22    1
    21     7     8   ar
    22     8     9   ar
    23     9    10   ar
    24    10    11   ar
    25    11    12   ar
    26    12    13   ar
    27    13     5   ar
    28    23    18    1
    29    13     8   ar
    30    23    19    1
    31     3     4    1
    32    28    29    1
@<TRIPOS>MOLECULE
*****
 29 32 0 0 0
SMALL
GASTEIGER

@<TRIPOS>ATOM
      1 C          63.9994   90.1157   13.8581 C.2     1  UNL1        0.2651
      2 O          62.6767   89.8434   13.2054 O.2     1  UNL1       -0.2684
      3 N          64.5075   89.2016   14.9335 N.am    1  UNL1       -0.2996
      4 H          65.3757   89.3804   15.3619 H       1  UNL1        0.1498
      5 C          65.7610   93.0952   12.1018 C.ar    1  UNL1        0.1239
      6 N          64.7964   91.9467   12.0812 N.ar    1  UNL1       -0.2260
      7 C          64.8142   91.3022   13.4355 C.ar    1  UNL1        0.1517
      8 C          65.7898   92.0523   14.2932 C.ar    1  UNL1        0.0872
      9 C          66.2209   91.8695   15.7182 C.ar    1  UNL1        0.0193
     10 C          67.2372   92.7948   16.3189 C.ar    1  UNL1        0.0031
     11 C          67.8223   93.9030   15.4946 C.ar    1  UNL1        0.0191
     12 C          67.3912   94.0859   14.0696 C.ar    1  UNL1        0.0811
     13 N          66.3750   93.1605   13.4689 N.ar    1  UNL1       -0.2921
     14 C          65.6699   95.4632   11.0365 C.3     1  UNL1        0.0079
     15 C          66.0594   94.0168   10.9565 C.3     1  UNL1        0.0573
     16 C          66.7471   93.4920    9.7311 C.3     1  UNL1        0.0079
     17 C          63.6927   88.0152   15.3560 C.3     1  UNL1        0.0898
     18 C          63.8773   86.6952   14.6678 C.3     1  UNL1        0.0224
     19 C          63.5216   85.7456   13.5625 C.3     1  UNL1        0.0191
     20 C          63.3785   84.6098   12.5932 C.3     1  UNL1        0.0722
     21 N          64.3209   83.5209   13.0127 N.3     1  UNL1       -0.2707
     22 C          65.0465   83.9837   14.2412 C.3     1  UNL1        0.0722
     23 C          64.5525   85.3586   14.5810 C.3     1  UNL1        0.0191
     24 C          64.5054   82.2010   12.3244 C.3     1  UNL1        0.0993
     25 C          63.4199   81.1673   12.3813 C.3     1  UNL1        0.1031
     26 C          63.6724   80.9829   13.8483 C.3     1  UNL1        0.0307
     27 C          63.1674   81.3518   10.9142 C.3     1  UNL1        0.0307
     28 O          62.3344   80.1337   12.4382 O.3     1  UNL1       -0.3854
     29 H          62.2544   79.7984   13.3449 H       1  UNL1        0.2103
@<TRIPOS>BOND
     1    14    15    1
     2    15    16    1
     3    15     5    1
     4     5     6   ar
     5     6     7   ar
     6     7     1    1
     7     1     2    2
     8     1     3   am
     9     3    17    1
    10    18    17    1
    11    18    19    1
    12    19    20    1
    13    20    21    1
    14    21    24    1
    15    24    25    1
    16    25    26    1
    17    25    27    1
    18    25    28    1
    19    21    22    1
    20    23    22    1
    21     7     8   ar
    22     8     9   ar
    23     9    10   ar
    24    10    11   ar
    25    11    12   ar
    26    12    13   ar
    27    13     5   ar
    28    23    18    1
    29    13     8   ar
    30    23    19    1
    31     3     4    1
    32    28    29    1
@<TRIPOS>MOLECULE
*****
 29 32 0 0 0
SMALL
GASTEIGER

@<TRIPOS>ATOM
      1 C          60.6436   88.0032    9.0327 C.2     1  UNL1        0.2651
      2 O          60.0895   86.6923    8.5593 O.2     1  UNL1       -0.2684
      3 N          60.2978   89.2696    8.3070 N.am    1  UNL1       -0.2996
      4 H          60.6615   90.1301    8.6177 H       1  UNL1        0.1498
      5 C          62.9426   88.8654   12.0388 C.ar    1  UNL1        0.1239
      6 N          62.0954   89.2858   10.8746 N.ar    1  UNL1       -0.2260
      7 C          61.5436   88.0478   10.2319 C.ar    1  UNL1        0.1517
      8 C          62.0498   86.8623   10.9990 C.ar    1  UNL1        0.0872
      9 C          61.8351   85.3880   10.8249 C.ar    1  UNL1        0.0193
     10 C          62.4850   84.4190   11.7675 C.ar    1  UNL1        0.0031
     11 C          63.3496   84.9243   12.8842 C.ar    1  UNL1        0.0191
     12 C          63.5644   86.3986   13.0583 C.ar    1  UNL1        0.0811
     13 N          62.9144   87.3676   12.1157 N.ar    1  UNL1       -0.2921
     14 C          64.0678   89.3139   14.3373 C.3     1  UNL1        0.0079
     15 C          63.6873   89.7818   12.9638 C.3     1  UNL1        0.0573
     16 C          64.0516   91.1660   12.5154 C.3     1  UNL1        0.0079
     17 C          59.3978   89.2250    7.1078 C.3     1  UNL1        0.0898
     18 C          59.5724   90.2229    6.0016 C.3     1  UNL1        0.0224
     19 C          58.9853   91.2196    5.0467 C.3     1  UNL1        0.0191
     20 C          58.6951   92.2506    3.9964 C.3     1  UNL1        0.0722
     21 N          59.9921   92.6227    3.3413 N.3     1  UNL1       -0.2707
     22 C          61.0840   91.8218    3.9866 C.3     1  UNL1        0.0722
     23 C          60.4617   90.9546    5.0405 C.3     1  UNL1        0.0191
     24 C          60.1666   93.6207    2.2351 C.3     1  UNL1        0.0993
     25 C          61.0091   93.2783    1.0422 C.3     1  UNL1        0.1031
     26 C          59.9040   92.4154    0.5093 C.3     1  UNL1        0.0307
     27 C          62.1143   94.1412    1.5751 C.3     1  UNL1        0.0307
     28 O          61.8517   92.9360   -0.1507 O.3     1  UNL1       -0.3854
     29 H          61.3595   92.3361   -0.7327 H       1  UNL1        0.2103
@<TRIPOS>BOND
     1    14    15    1
     2    15    16    1
     3    15     5    1
     4     5     6   ar
     5     6     7   ar
     6     7     1    1
     7     1     2    2
     8     1     3   am
     9     3    17    1
    10    18    17    1
    11    18    19    1
    12    19    20    1
    13    20    21    1
    14    21    24    1
    15    24    25    1
    16    25    26    1
    17    25    27    1
    18    25    28    1
    19    21    22    1
    20    23    22    1
    21     7     8   ar
    22     8     9   ar
    23     9    10   ar
    24    10    11   ar
    25    11    12   ar
    26    12    13   ar
    27    13     5   ar
    28    23    18    1
    29    13     8   ar
    30    23    19    1
    31     3     4    1
    32    28    29    1
