@<TRIPOS>MOLECULE
*****
 23 24 0 0 0
SMALL
GASTEIGER

@<TRIPOS>ATOM
      1 N          65.6240   92.5064   13.2322 N.am    1  UNL1       -0.2537
      2 C          65.2737   92.5867   11.7759 C.2     1  UNL1        0.2536
      3 O          64.2535   91.6516   11.1973 O.2     1  UNL1       -0.2695
      4 C          65.9434   93.6022   10.8983 C.ar    1  UNL1        0.0645
      5 C          65.3683   94.9820   10.7740 C.ar    1  UNL1        0.0062
      6 C          66.0381   95.9975    9.8964 C.ar    1  UNL1        0.0116
      7 C          67.2830   95.6331    9.1429 C.ar    1  UNL1        0.0585
      8 CL         67.9528   96.6485    8.2653 Cl      1  UNL1       -0.0822
      9 C          67.8580   94.2533    9.2672 C.ar    1  UNL1        0.0229
     10 C          67.1882   93.2378   10.1449 C.ar    1  UNL1        0.0629
     11 CL         67.7633   91.8580   10.2691 Cl      1  UNL1       -0.0821
     12 C          64.9543   91.4910   14.1099 C.ar    1  UNL1        0.0543
     13 C          64.4748   91.8807   15.4767 C.ar    1  UNL1        0.0172
     14 C          63.8051   90.8652   16.3543 C.ar    1  UNL1        0.0309
     15 C          63.6147   89.4601   15.8652 C.ar    1  UNL1        0.1402
     16 F          62.9450   88.4447   16.7428 F       1  UNL1       -0.2042
     17 C          64.0942   89.0703   14.4983 C.ar    1  UNL1        0.0309
     18 C          64.7639   90.0858   13.6206 C.ar    1  UNL1        0.0172
     19 C          66.6442   93.4416   13.8109 C.3     1  UNL1        0.1153
     20 N          68.7972   91.9894   13.7366 N.3     1  UNL1       -0.3197
     21 C          67.8654   92.8935   14.4878 C.3     1  UNL1        0.0873
     22 H          69.5676   91.7133   14.3455 H       1  UNL1        0.1189
     23 H          69.1664   92.4816   12.9232 H       1  UNL1        0.1189
@<TRIPOS>BOND
     1    20    21    1
     2    21    19    1
     3    19     1    1
     4     1     2   am
     5     2     3    2
     6     2     4    1
     7     4     5   ar
     8     5     6   ar
     9     6     7   ar
    10     7     8    1
    11     7     9   ar
    12     9    10   ar
    13    10    11    1
    14     1    12    1
    15    12    13   ar
    16    13    14   ar
    17    14    15   ar
    18    15    16    1
    19    15    17   ar
    20    17    18   ar
    21    10     4   ar
    22    18    12   ar
    23    20    22    1
    24    20    23    1
@<TRIPOS>MOLECULE
*****
 23 24 0 0 0
SMALL
GASTEIGER

@<TRIPOS>ATOM
      1 N          66.0279   91.7812   13.2266 N.am    1  UNL1       -0.2537
      2 C          64.6440   91.2027   13.2319 C.2     1  UNL1        0.2536
      3 O          63.6729   91.5711   12.1496 O.2     1  UNL1       -0.2695
      4 C          64.2312   90.2556   14.3194 C.ar    1  UNL1        0.0645
      5 C          64.2161   88.7780   14.0614 C.ar    1  UNL1        0.0062
      6 C          63.8032   87.8310   15.1489 C.ar    1  UNL1        0.0116
      7 C          63.4055   88.3616   16.4945 C.ar    1  UNL1        0.0585
      8 CL         62.9927   87.4146   17.5820 Cl      1  UNL1       -0.0822
      9 C          63.4206   89.8391   16.7524 C.ar    1  UNL1        0.0229
     10 C          63.8335   90.7861   15.6649 C.ar    1  UNL1        0.0629
     11 CL         63.8486   92.2638   15.9229 Cl      1  UNL1       -0.0821
     12 C          66.4407   92.7283   12.1391 C.ar    1  UNL1        0.0543
     13 C          67.1991   92.2193   10.9493 C.ar    1  UNL1        0.0172
     14 C          67.6119   93.1663    9.8617 C.ar    1  UNL1        0.0309
     15 C          67.2664   94.6223    9.9640 C.ar    1  UNL1        0.1402
     16 F          67.6792   95.5693    8.8765 F       1  UNL1       -0.2042
     17 C          66.5080   95.1314   11.1539 C.ar    1  UNL1        0.0309
     18 C          66.0951   94.1844   12.2414 C.ar    1  UNL1        0.0172
     19 C          66.9990   91.4128   14.3089 C.3     1  UNL1        0.1153
     20 N          69.4162   92.3617   14.2299 N.3     1  UNL1       -0.3197
     21 C          68.0188   92.4101   14.7728 C.3     1  UNL1        0.0873
     22 H          69.9707   93.1070   14.6513 H       1  UNL1        0.1189
     23 H          69.3923   92.4864   13.2178 H       1  UNL1        0.1189
@<TRIPOS>BOND
     1    20    21    1
     2    21    19    1
     3    19     1    1
     4     1     2   am
     5     2     3    2
     6     2     4    1
     7     4     5   ar
     8     5     6   ar
     9     6     7   ar
    10     7     8    1
    11     7     9   ar
    12     9    10   ar
    13    10    11    1
    14     1    12    1
    15    12    13   ar
    16    13    14   ar
    17    14    15   ar
    18    15    16    1
    19    15    17   ar
    20    17    18   ar
    21    10     4   ar
    22    18    12   ar
    23    20    22    1
    24    20    23    1
@<TRIPOS>MOLECULE
*****
 23 24 0 0 0
SMALL
GASTEIGER

@<TRIPOS>ATOM
      1 N          64.1221   90.5334   13.6816 N.am    1  UNL1       -0.2537
      2 C          65.4349   91.2579   13.6422 C.2     1  UNL1        0.2536
      3 O          66.5354   90.8679   14.5840 O.2     1  UNL1       -0.2695
      4 C          65.6473   92.3725   12.6610 C.ar    1  UNL1        0.0645
      5 C          65.2797   92.1826   11.2192 C.ar    1  UNL1        0.0062
      6 C          65.4921   93.2971   10.2380 C.ar    1  UNL1        0.0116
      7 C          66.0721   94.6016   10.6987 C.ar    1  UNL1        0.0585
      8 CL         66.2845   95.7161    9.7176 Cl      1  UNL1       -0.0822
      9 C          66.4396   94.7914   12.1405 C.ar    1  UNL1        0.0229
     10 C          66.2272   93.6769   13.1217 C.ar    1  UNL1        0.0629
     11 CL         66.5948   93.8667   14.5636 Cl      1  UNL1       -0.0821
     12 C          63.9097   89.4188   14.6627 C.ar    1  UNL1        0.0543
     13 C          64.3471   88.0253   14.3211 C.ar    1  UNL1        0.0172
     14 C          64.1348   86.9108   15.3022 C.ar    1  UNL1        0.0309
     15 C          63.4849   87.1898   16.6251 C.ar    1  UNL1        0.1402
     16 F          63.2725   86.0752   17.6062 F       1  UNL1       -0.2042
     17 C          63.0475   88.5833   16.9668 C.ar    1  UNL1        0.0309
     18 C          63.2599   89.6979   15.9856 C.ar    1  UNL1        0.0172
     19 C          63.0216   90.9234   12.7398 C.3     1  UNL1        0.1153
     20 N          60.7103   89.7574   12.5216 N.3     1  UNL1       -0.3197
     21 C          62.1523   89.8676   12.1238 C.3     1  UNL1        0.0873
     22 H          60.2736   88.9916   12.0085 H       1  UNL1        0.1189
     23 H          60.2298   90.6303   12.3035 H       1  UNL1        0.1189
@<TRIPOS>BOND
     1    20    21    1
     2    21    19    1
     3    19     1    1
     4     1     2   am
     5     2     3    2
     6     2     4    1
     7     4     5   ar
     8     5     6   ar
     9     6     7   ar
    10     7     8    1
    11     7     9   ar
    12     9    10   ar
    13    10    11    1
    14     1    12    1
    15    12    13   ar
    16    13    14   ar
    17    14    15   ar
    18    15    16    1
    19    15    17   ar
    20    17    18   ar
    21    10     4   ar
    22    18    12   ar
    23    20    22    1
    24    20    23    1
@<TRIPOS>MOLECULE
*****
 23 24 0 0 0
SMALL
GASTEIGER

@<TRIPOS>ATOM
      1 N          63.6734   86.1121   13.5573 N.am    1  UNL1       -0.2537
      2 C          62.7188   85.3308   12.7040 C.2     1  UNL1        0.2536
      3 O          61.8479   86.0406   11.7101 O.2     1  UNL1       -0.2695
      4 C          62.6350   83.8398   12.8446 C.ar    1  UNL1        0.0645
      5 C          62.0408   83.2353   14.0822 C.ar    1  UNL1        0.0062
      6 C          61.9570   81.7443   14.2228 C.ar    1  UNL1        0.0116
      7 C          62.4674   80.8577   13.1257 C.ar    1  UNL1        0.0585
      8 CL         62.3836   79.3666   13.2662 Cl      1  UNL1       -0.0822
      9 C          63.0616   81.4621   11.8881 C.ar    1  UNL1        0.0229
     10 C          63.1454   82.9532   11.7476 C.ar    1  UNL1        0.0629
     11 CL         63.7396   83.5576   10.5099 Cl      1  UNL1       -0.0821
     12 C          63.7572   87.6032   13.4168 C.ar    1  UNL1        0.0543
     13 C          63.1626   88.2779   12.2164 C.ar    1  UNL1        0.0172
     14 C          63.2463   89.7690   12.0759 C.ar    1  UNL1        0.0309
     15 C          63.9248   90.5853   13.1357 C.ar    1  UNL1        0.1402
     16 F          64.0086   92.0763   12.9951 F       1  UNL1       -0.2042
     17 C          64.5196   89.9105   14.3362 C.ar    1  UNL1        0.0309
     18 C          64.4358   88.4194   14.4767 C.ar    1  UNL1        0.0172
     19 C          64.5443   85.4024   14.5513 C.3     1  UNL1        0.1153
     20 N          62.7945   85.8384   16.4215 N.3     1  UNL1       -0.3197
     21 C          64.1541   85.3660   15.9991 C.3     1  UNL1        0.0873
     22 H          62.7007   85.7437   17.4327 H       1  UNL1        0.1189
     23 H          62.0803   85.2755   15.9595 H       1  UNL1        0.1189
@<TRIPOS>BOND
     1    20    21    1
     2    21    19    1
     3    19     1    1
     4     1     2   am
     5     2     3    2
     6     2     4    1
     7     4     5   ar
     8     5     6   ar
     9     6     7   ar
    10     7     8    1
    11     7     9   ar
    12     9    10   ar
    13    10    11    1
    14     1    12    1
    15    12    13   ar
    16    13    14   ar
    17    14    15   ar
    18    15    16    1
    19    15    17   ar
    20    17    18   ar
    21    10     4   ar
    22    18    12   ar
    23    20    22    1
    24    20    23    1
@<TRIPOS>MOLECULE
*****
 23 24 0 0 0
SMALL
GASTEIGER

@<TRIPOS>ATOM
      1 N          64.8160   91.6841   12.5300 N.am    1  UNL1       -0.2537
      2 C          66.0028   92.5927   12.6555 C.2     1  UNL1        0.2536
      3 O          66.7937   92.6220   13.9298 O.2     1  UNL1       -0.2695
      4 C          66.3989   93.4721   11.5066 C.ar    1  UNL1        0.0645
      5 C          65.8141   94.8476   11.3786 C.ar    1  UNL1        0.0062
      6 C          66.2102   95.7269   10.2298 C.ar    1  UNL1        0.0116
      7 C          67.1911   95.2309    9.2090 C.ar    1  UNL1        0.0585
      8 CL         67.5871   96.1103    8.0601 Cl      1  UNL1       -0.0822
      9 C          67.7758   93.8555    9.3370 C.ar    1  UNL1        0.0229
     10 C          67.3797   92.9761   10.4859 C.ar    1  UNL1        0.0629
     11 CL         67.9645   91.6007   10.6139 Cl      1  UNL1       -0.0821
     12 C          64.4199   90.8047   13.6789 C.ar    1  UNL1        0.0543
     13 C          63.9738   91.4174   14.9733 C.ar    1  UNL1        0.0172
     14 C          63.5777   90.5380   16.1221 C.ar    1  UNL1        0.0309
     15 C          63.6278   89.0460   15.9765 C.ar    1  UNL1        0.1402
     16 F          63.2317   88.1666   17.1254 F       1  UNL1       -0.2042
     17 C          64.0740   88.4332   14.6821 C.ar    1  UNL1        0.0309
     18 C          64.4700   89.3126   13.5332 C.ar    1  UNL1        0.0172
     19 C          64.0252   91.6548   11.2557 C.3     1  UNL1        0.1153
     20 N          62.0391   90.6937    9.8841 N.3     1  UNL1       -0.3197
     21 C          62.7148   90.9268   11.2028 C.3     1  UNL1        0.0873
     22 H          61.1660   90.1882   10.0341 H       1  UNL1        0.1189
     23 H          62.6510   90.1439    9.2810 H       1  UNL1        0.1189
@<TRIPOS>BOND
     1    20    21    1
     2    21    19    1
     3    19     1    1
     4     1     2   am
     5     2     3    2
     6     2     4    1
     7     4     5   ar
     8     5     6   ar
     9     6     7   ar
    10     7     8    1
    11     7     9   ar
    12     9    10   ar
    13    10    11    1
    14     1    12    1
    15    12    13   ar
    16    13    14   ar
    17    14    15   ar
    18    15    16    1
    19    15    17   ar
    20    17    18   ar
    21    10     4   ar
    22    18    12   ar
    23    20    22    1
    24    20    23    1
@<TRIPOS>MOLECULE
*****
 23 24 0 0 0
SMALL
GASTEIGER

@<TRIPOS>ATOM
      1 N          63.9625   90.8941   12.5194 N.am    1  UNL1       -0.2537
      2 C          64.7010   90.4218   13.7366 C.2     1  UNL1        0.2536
      3 O          64.3698   89.0917   14.3457 O.2     1  UNL1       -0.2695
      4 C          65.7707   91.2797   14.3446 C.ar    1  UNL1        0.0645
      5 C          67.0882   91.4433   13.6463 C.ar    1  UNL1        0.0062
      6 C          68.1579   92.3012   14.2544 C.ar    1  UNL1        0.0116
      7 C          67.9101   92.9955   15.5608 C.ar    1  UNL1        0.0585
      8 CL         68.9798   93.8534   16.1689 Cl      1  UNL1       -0.0822
      9 C          66.5927   92.8319   16.2590 C.ar    1  UNL1        0.0229
     10 C          65.5230   91.9741   15.6509 C.ar    1  UNL1        0.0629
     11 CL         64.2055   91.8105   16.3493 Cl      1  UNL1       -0.0821
     12 C          62.8928   90.0362   11.9113 C.ar    1  UNL1        0.0543
     13 C          61.6267   90.6618   11.4059 C.ar    1  UNL1        0.0172
     14 C          60.5570   89.8039   10.7979 C.ar    1  UNL1        0.0309
     15 C          60.7534   88.3204   10.6952 C.ar    1  UNL1        0.1402
     16 F          59.6837   87.4625   10.0871 F       1  UNL1       -0.2042
     17 C          62.0196   87.6947   11.2006 C.ar    1  UNL1        0.0309
     18 C          63.0893   88.5526   11.8087 C.ar    1  UNL1        0.0172
     19 C          64.2937   92.2243   11.9102 C.3     1  UNL1        0.1153
     20 N          65.4791   93.6237   10.0702 N.3     1  UNL1       -0.3197
     21 C          65.1478   92.2936   10.6791 C.3     1  UNL1        0.0873
     22 H          66.0639   93.4842    9.2462 H       1  UNL1        0.1189
     23 H          65.9812   94.1937   10.7509 H       1  UNL1        0.1189
@<TRIPOS>BOND
     1    20    21    1
     2    21    19    1
     3    19     1    1
     4     1     2   am
     5     2     3    2
     6     2     4    1
     7     4     5   ar
     8     5     6   ar
     9     6     7   ar
    10     7     8    1
    11     7     9   ar
    12     9    10   ar
    13    10    11    1
    14     1    12    1
    15    12    13   ar
    16    13    14   ar
    17    14    15   ar
    18    15    16    1
    19    15    17   ar
    20    17    18   ar
    21    10     4   ar
    22    18    12   ar
    23    20    22    1
    24    20    23    1
@<TRIPOS>MOLECULE
*****
 23 24 0 0 0
SMALL
GASTEIGER

@<TRIPOS>ATOM
      1 N          62.8179   84.6922   13.4247 N.am    1  UNL1       -0.2537
      2 C          63.6701   85.0950   14.5915 C.2     1  UNL1        0.2536
      3 O          64.5004   84.0686   15.3036 O.2     1  UNL1       -0.2695
      4 C          63.6922   86.5243   15.0461 C.ar    1  UNL1        0.0645
      5 C          64.2992   87.5805   14.1707 C.ar    1  UNL1        0.0062
      6 C          64.3212   89.0098   14.6253 C.ar    1  UNL1        0.0116
      7 C          63.7363   89.3829   15.9553 C.ar    1  UNL1        0.0585
      8 CL         63.7583   90.8122   16.4099 Cl      1  UNL1       -0.0822
      9 C          63.1293   88.3267   16.8305 C.ar    1  UNL1        0.0229
     10 C          63.1073   86.8975   16.3759 C.ar    1  UNL1        0.0629
     11 CL         62.5003   85.8413   17.2513 Cl      1  UNL1       -0.0821
     12 C          62.7958   83.2629   12.9701 C.ar    1  UNL1        0.0543
     13 C          62.2387   82.1987   13.8684 C.ar    1  UNL1        0.0172
     14 C          62.2166   80.7694   13.4138 C.ar    1  UNL1        0.0309
     15 C          62.7517   80.4043   12.0609 C.ar    1  UNL1        0.1402
     16 F          62.7297   78.9750   11.6063 F       1  UNL1       -0.2042
     17 C          63.3089   81.4686   11.1626 C.ar    1  UNL1        0.0309
     18 C          63.3310   82.8979   11.6172 C.ar    1  UNL1        0.0172
     19 C          61.9876   85.7186   12.7126 C.3     1  UNL1        0.1153
     20 N          61.2876   85.9295   10.2195 N.3     1  UNL1       -0.3197
     21 C          62.3151   86.0989   11.2991 C.3     1  UNL1        0.0873
     22 H          61.6775   86.2353    9.3280 H       1  UNL1        0.1189
     23 H          60.4654   86.4909   10.4416 H       1  UNL1        0.1189
@<TRIPOS>BOND
     1    20    21    1
     2    21    19    1
     3    19     1    1
     4     1     2   am
     5     2     3    2
     6     2     4    1
     7     4     5   ar
     8     5     6   ar
     9     6     7   ar
    10     7     8    1
    11     7     9   ar
    12     9    10   ar
    13    10    11    1
    14     1    12    1
    15    12    13   ar
    16    13    14   ar
    17    14    15   ar
    18    15    16    1
    19    15    17   ar
    20    17    18   ar
    21    10     4   ar
    22    18    12   ar
    23    20    22    1
    24    20    23    1
@<TRIPOS>MOLECULE
*****
 23 24 0 0 0
SMALL
GASTEIGER

@<TRIPOS>ATOM
      1 N          63.0419   86.5418   12.6682 N.am    1  UNL1       -0.2537
      2 C          63.7377   85.5459   13.5480 C.2     1  UNL1        0.2536
      3 O          64.7849   86.0054   14.5187 O.2     1  UNL1       -0.2695
      4 C          63.3864   84.0904   13.4571 C.ar    1  UNL1        0.0645
      5 C          63.9853   83.2404   12.3759 C.ar    1  UNL1        0.0062
      6 C          63.6340   81.7850   12.2850 C.ar    1  UNL1        0.0116
      7 C          62.6838   81.1796   13.2753 C.ar    1  UNL1        0.0585
      8 CL         62.3324   79.7241   13.1843 Cl      1  UNL1       -0.0822
      9 C          62.0849   82.0295   14.3564 C.ar    1  UNL1        0.0229
     10 C          62.4363   83.4850   14.4473 C.ar    1  UNL1        0.0629
     11 CL         61.8374   84.3350   15.5285 Cl      1  UNL1       -0.0821
     12 C          63.3932   87.9972   12.7591 C.ar    1  UNL1        0.0543
     13 C          62.9686   88.9405   11.6730 C.ar    1  UNL1        0.0172
     14 C          63.3199   90.3959   11.7639 C.ar    1  UNL1        0.0309
     15 C          64.0959   90.9081   12.9409 C.ar    1  UNL1        0.1402
     16 F          64.4472   92.3635   13.0318 F       1  UNL1       -0.2042
     17 C          64.5206   89.9648   14.0272 C.ar    1  UNL1        0.0309
     18 C          64.1692   88.5093   13.9363 C.ar    1  UNL1        0.0172
     19 C          61.9947   86.0822   11.6975 C.3     1  UNL1        0.1153
     20 N          62.0683   86.5171    9.1372 N.3     1  UNL1       -0.3197
     21 C          62.3902   85.6487   10.3171 C.3     1  UNL1        0.0873
     22 H          62.4073   86.0716    8.2846 H       1  UNL1        0.1189
     23 H          62.5204   87.4246    9.2495 H       1  UNL1        0.1189
@<TRIPOS>BOND
     1    20    21    1
     2    21    19    1
     3    19     1    1
     4     1     2   am
     5     2     3    2
     6     2     4    1
     7     4     5   ar
     8     5     6   ar
     9     6     7   ar
    10     7     8    1
    11     7     9   ar
    12     9    10   ar
    13    10    11    1
    14     1    12    1
    15    12    13   ar
    16    13    14   ar
    17    14    15   ar
    18    15    16    1
    19    15    17   ar
    20    17    18   ar
    21    10     4   ar
    22    18    12   ar
    23    20    22    1
    24    20    23    1
@<TRIPOS>MOLECULE
*****
 23 24 0 0 0
SMALL
GASTEIGER

@<TRIPOS>ATOM
      1 N          62.8245   86.3624   12.4500 N.am    1  UNL1       -0.2537
      2 C          63.5376   85.4021   13.3550 C.2     1  UNL1        0.2536
      3 O          64.5936   85.9015   14.2960 O.2     1  UNL1       -0.2695
      4 C          63.1947   83.9422   13.3191 C.ar    1  UNL1        0.0645
      5 C          62.2591   83.3662   14.3405 C.ar    1  UNL1        0.0062
      6 C          61.9162   81.9064   14.3046 C.ar    1  UNL1        0.0116
      7 C          62.5089   81.0225   13.2474 C.ar    1  UNL1        0.0585
      8 CL         62.1660   79.5627   13.2115 Cl      1  UNL1       -0.0822
      9 C          63.4444   81.5985   12.2261 C.ar    1  UNL1        0.0229
     10 C          63.7873   83.0584   12.2620 C.ar    1  UNL1        0.0629
     11 CL         64.7229   83.6344   11.2407 Cl      1  UNL1       -0.0821
     12 C          63.1674   87.8223   12.4859 C.ar    1  UNL1        0.0543
     13 C          62.7445   88.7199   11.3610 C.ar    1  UNL1        0.0172
     14 C          63.0874   90.1797   11.3969 C.ar    1  UNL1        0.0309
     15 C          63.8532   90.7420   12.5576 C.ar    1  UNL1        0.1402
     16 F          64.1961   92.2018   12.5935 F       1  UNL1       -0.2042
     17 C          64.2761   89.8443   13.6826 C.ar    1  UNL1        0.0309
     18 C          63.9332   88.3845   13.6467 C.ar    1  UNL1        0.0172
     19 C          61.7684   85.8630   11.5090 C.3     1  UNL1        0.1153
     20 N          61.4851   86.3431    8.9715 N.3     1  UNL1       -0.3197
     21 C          62.1181   85.5589   10.0824 C.3     1  UNL1        0.0873
     22 H          61.8348   86.0055    8.0748 H       1  UNL1        0.1189
     23 H          61.7176   87.3307    9.0771 H       1  UNL1        0.1189
@<TRIPOS>BOND
     1    20    21    1
     2    21    19    1
     3    19     1    1
     4     1     2   am
     5     2     3    2
     6     2     4    1
     7     4     5   ar
     8     5     6   ar
     9     6     7   ar
    10     7     8    1
    11     7     9   ar
    12     9    10   ar
    13    10    11    1
    14     1    12    1
    15    12    13   ar
    16    13    14   ar
    17    14    15   ar
    18    15    16    1
    19    15    17   ar
    20    17    18   ar
    21    10     4   ar
    22    18    12   ar
    23    20    22    1
    24    20    23    1
