@<TRIPOS>MOLECULE
*****
 34 37 0 0 0
SMALL
GASTEIGER

@<TRIPOS>ATOM
      1 C          64.1818   89.2604   15.1778 C.ar    1  UNL1        0.0360
      2 C          63.2958   89.4048   16.3797 C.ar    1  UNL1        0.0031
      3 C          62.7559   88.1843   17.0644 C.ar    1  UNL1        0.0002
      4 C          63.1020   86.8194   16.5474 C.ar    1  UNL1        0.0045
      5 C          63.9879   86.6751   15.3456 C.ar    1  UNL1        0.0535
      6 C          64.5278   87.8956   14.6609 C.ar    1  UNL1        0.0076
      7 N          64.2366   91.0494   13.1925 N.ar    1  UNL1       -0.2111
      8 N          65.0566   92.2671   12.8844 N.ar    1  UNL1       -0.1488
      9 C          66.0484   92.4512   13.9945 C.ar    1  UNL1        0.1612
     10 C          67.0682   93.5468   14.0931 C.3     1  UNL1        0.0756
     11 N          65.8414   91.3473   14.9888 N.ar    1  UNL1       -0.2101
     12 C          64.7217   90.4810   14.4931 C.ar    1  UNL1        0.1651
     13 C          60.9063   89.3928   10.6598 C.ar    1  UNL1        0.1388
     14 C          60.7862   89.3857   12.1550 C.ar    1  UNL1        0.0384
     15 C          61.8963   89.9379   12.9992 C.ar    1  UNL1        0.0223
     16 C          63.1265   90.4972   12.3483 C.ar    1  UNL1        0.0847
     17 C          63.2466   90.5043   10.8531 C.ar    1  UNL1        0.0223
     18 C          62.1365   89.9521   10.0089 C.ar    1  UNL1        0.0384
     19 C          59.9067   88.8677    8.3200 C.3     1  UNL1        0.2525
     20 O          59.7962   88.8405    9.8156 O.3     1  UNL1       -0.4714
     21 C          64.3340   85.3102   14.8286 C.2     1  UNL1        0.2458
     22 O          65.6510   85.0770   14.1497 O.2     1  UNL1       -0.2701
     23 N          63.3630   84.1784   14.9905 N.am    1  UNL1       -0.3009
     24 H          62.4986   84.3314   15.4362 H       1  UNL1        0.1497
     25 C          63.7091   82.8135   14.4735 C.3     1  UNL1        0.0897
     26 C          62.6915   82.0216   13.7070 C.3     1  UNL1        0.0216
     27 C          62.8664   81.8024   12.2335 C.3     1  UNL1        0.0064
     28 C          63.8166   82.6632   11.4548 C.3     1  UNL1        0.0264
     29 C          63.3061   83.8633   10.7138 C.ar    1  UNL1       -0.0222
     30 C          63.6171   84.0331    9.2563 C.ar    1  UNL1       -0.0043
     31 C          63.1065   85.2332    8.5153 C.ar    1  UNL1       -0.0003
     32 C          62.2849   86.2635    9.2317 C.ar    1  UNL1       -0.0000
     33 C          61.9739   86.0937   10.6892 C.ar    1  UNL1       -0.0003
     34 C          62.4844   84.8937   11.4303 C.ar    1  UNL1       -0.0043
@<TRIPOS>BOND
     1    19    20    1
     2    20    13    1
     3    13    14   ar
     4    14    15   ar
     5    15    16   ar
     6    16     7    1
     7     7     8   ar
     8     8     9   ar
     9     9    10    1
    10     9    11   ar
    11    11    12   ar
    12    12     1    1
    13     1     2   ar
    14     2     3   ar
    15     3     4   ar
    16     4     5   ar
    17     5    21    1
    18    21    22    2
    19    21    23   am
    20    23    25    1
    21    25    26    1
    22    26    27    1
    23    27    28    1
    24    28    29    1
    25    29    30   ar
    26    30    31   ar
    27    31    32   ar
    28    32    33   ar
    29    33    34   ar
    30     5     6   ar
    31    16    17   ar
    32    17    18   ar
    33    18    13   ar
    34    12     7   ar
    35     6     1   ar
    36    34    29   ar
    37    23    24    1
@<TRIPOS>MOLECULE
*****
 34 37 0 0 0
SMALL
GASTEIGER

@<TRIPOS>ATOM
      1 C          62.3996   90.0645   11.1680 C.ar    1  UNL1        0.0360
      2 C          61.0077   90.4733   11.5498 C.ar    1  UNL1        0.0031
      3 C          59.8493   89.5730   11.2373 C.ar    1  UNL1        0.0002
      4 C          60.0827   88.2640   10.5431 C.ar    1  UNL1        0.0045
      5 C          61.4745   87.8552   10.1614 C.ar    1  UNL1        0.0535
      6 C          62.6329   88.7555   10.4738 C.ar    1  UNL1        0.0076
      7 N          64.2949   91.0327   12.7852 N.ar    1  UNL1       -0.2111
      8 N          65.3752   92.0650   12.6541 N.ar    1  UNL1       -0.1488
      9 C          65.3060   92.6351   11.2684 C.ar    1  UNL1        0.1612
     10 C          66.2024   93.6985   10.7067 C.3     1  UNL1        0.0756
     11 N          64.1828   91.9551   10.5430 N.ar    1  UNL1       -0.2101
     12 C          63.5580   90.9647   11.4805 C.ar    1  UNL1        0.1651
     13 C          63.4187   88.5716   16.4493 C.ar    1  UNL1        0.1388
     14 C          63.8873   87.9028   15.1910 C.ar    1  UNL1        0.0384
     15 C          64.1794   88.7232   13.9697 C.ar    1  UNL1        0.0223
     16 C          64.0029   90.2123   14.0066 C.ar    1  UNL1        0.0847
     17 C          63.5343   90.8810   15.2648 C.ar    1  UNL1        0.0223
     18 C          63.2422   90.0606   16.4861 C.ar    1  UNL1        0.0384
     19 C          62.3178   86.4934   17.5535 C.3     1  UNL1        0.2525
     20 O          63.1266   87.7512   17.6706 O.3     1  UNL1       -0.4714
     21 C          61.7079   86.5462    9.4672 C.2     1  UNL1        0.2458
     22 O          60.9130   86.1930    8.2452 O.2     1  UNL1       -0.2701
     23 N          62.7363   85.5902    9.9950 N.am    1  UNL1       -0.3009
     24 H          63.2580   85.8219   10.7970 H       1  UNL1        0.1497
     25 C          62.9697   84.2812    9.3008 C.3     1  UNL1        0.0897
     26 C          64.1119   83.4035    9.7191 C.3     1  UNL1        0.0216
     27 C          63.8438   82.1194   10.4465 C.3     1  UNL1        0.0064
     28 C          62.8982   82.1003   11.6108 C.3     1  UNL1        0.0264
     29 C          63.2531   82.8219   12.8770 C.ar    1  UNL1       -0.0222
     30 C          64.4869   83.6730   12.9346 C.ar    1  UNL1       -0.0043
     31 C          64.8418   84.3946   14.2009 C.ar    1  UNL1       -0.0003
     32 C          63.9630   84.2651   15.4095 C.ar    1  UNL1       -0.0000
     33 C          62.7292   83.4140   15.3519 C.ar    1  UNL1       -0.0003
     34 C          62.3743   82.6924   14.0857 C.ar    1  UNL1       -0.0043
@<TRIPOS>BOND
     1    19    20    1
     2    20    13    1
     3    13    14   ar
     4    14    15   ar
     5    15    16   ar
     6    16     7    1
     7     7     8   ar
     8     8     9   ar
     9     9    10    1
    10     9    11   ar
    11    11    12   ar
    12    12     1    1
    13     1     2   ar
    14     2     3   ar
    15     3     4   ar
    16     4     5   ar
    17     5    21    1
    18    21    22    2
    19    21    23   am
    20    23    25    1
    21    25    26    1
    22    26    27    1
    23    27    28    1
    24    28    29    1
    25    29    30   ar
    26    30    31   ar
    27    31    32   ar
    28    32    33   ar
    29    33    34   ar
    30     5     6   ar
    31    16    17   ar
    32    17    18   ar
    33    18    13   ar
    34    12     7   ar
    35     6     1   ar
    36    34    29   ar
    37    23    24    1
@<TRIPOS>MOLECULE
*****
 34 37 0 0 0
SMALL
GASTEIGER

@<TRIPOS>ATOM
      1 C          62.7283   84.0983   11.3149 C.ar    1  UNL1        0.0360
      2 C          63.0763   83.9042    9.8687 C.ar    1  UNL1        0.0031
      3 C          63.0407   85.0701    8.9257 C.ar    1  UNL1        0.0002
      4 C          62.6571   86.4302    9.4288 C.ar    1  UNL1        0.0045
      5 C          62.3092   86.6243   10.8749 C.ar    1  UNL1        0.0535
      6 C          62.3448   85.4583   11.8180 C.ar    1  UNL1        0.0076
      7 N          62.9185   83.0079   13.7480 N.ar    1  UNL1       -0.2111
      8 N          62.9013   81.6084   14.2874 N.ar    1  UNL1       -0.1488
      9 C          62.7360   80.6678   13.1307 C.ar    1  UNL1        0.1612
     10 C          62.6677   79.1716   13.2137 C.3     1  UNL1        0.0756
     11 N          62.6511   81.4860   11.8764 N.ar    1  UNL1       -0.2101
     12 C          62.7639   82.9323   12.2580 C.ar    1  UNL1        0.1651
     13 C          63.3570   86.7724   16.1742 C.ar    1  UNL1        0.1388
     14 C          62.2827   85.7823   16.5137 C.ar    1  UNL1        0.0384
     15 C          62.1365   84.5274   15.7049 C.ar    1  UNL1        0.0223
     16 C          63.0647   84.2628   14.5568 C.ar    1  UNL1        0.0847
     17 C          64.1391   85.2529   14.2173 C.ar    1  UNL1        0.0223
     18 C          64.2852   86.5077   15.0261 C.ar    1  UNL1        0.0384
     19 C          63.1637   89.3555   16.3744 C.3     1  UNL1        0.2525
     20 O          63.5032   88.0272   16.9830 O.3     1  UNL1       -0.4714
     21 C          61.9257   87.9843   11.3780 C.2     1  UNL1        0.2458
     22 O          60.5767   88.5525   11.0501 O.2     1  UNL1       -0.2701
     23 N          62.8911   88.7764   12.2091 N.am    1  UNL1       -0.3009
     24 H          63.7765   88.4035   12.4244 H       1  UNL1        0.1497
     25 C          62.5076   90.1364   12.7122 C.3     1  UNL1        0.0897
     26 C          63.5680   91.1613   12.9863 C.3     1  UNL1        0.0216
     27 C          64.4733   91.6179   11.8808 C.3     1  UNL1        0.0064
     28 C          65.7627   92.3121   12.2059 C.3     1  UNL1        0.0264
     29 C          66.4886   93.0821   11.1428 C.ar    1  UNL1       -0.0222
     30 C          66.2061   94.5425   10.9494 C.ar    1  UNL1       -0.0043
     31 C          66.9320   95.3125    9.8863 C.ar    1  UNL1       -0.0003
     32 C          67.9404   94.6221    9.0165 C.ar    1  UNL1       -0.0000
     33 C          68.2228   93.1617    9.2099 C.ar    1  UNL1       -0.0003
     34 C          67.4970   92.3917   10.2729 C.ar    1  UNL1       -0.0043
@<TRIPOS>BOND
     1    19    20    1
     2    20    13    1
     3    13    14   ar
     4    14    15   ar
     5    15    16   ar
     6    16     7    1
     7     7     8   ar
     8     8     9   ar
     9     9    10    1
    10     9    11   ar
    11    11    12   ar
    12    12     1    1
    13     1     2   ar
    14     2     3   ar
    15     3     4   ar
    16     4     5   ar
    17     5    21    1
    18    21    22    2
    19    21    23   am
    20    23    25    1
    21    25    26    1
    22    26    27    1
    23    27    28    1
    24    28    29    1
    25    29    30   ar
    26    30    31   ar
    27    31    32   ar
    28    32    33   ar
    29    33    34   ar
    30     5     6   ar
    31    16    17   ar
    32    17    18   ar
    33    18    13   ar
    34    12     7   ar
    35     6     1   ar
    36    34    29   ar
    37    23    24    1
@<TRIPOS>MOLECULE
*****
 34 37 0 0 0
SMALL
GASTEIGER

@<TRIPOS>ATOM
      1 C          62.7942   83.7456   11.2295 C.ar    1  UNL1        0.0360
      2 C          63.5887   83.5489    9.9723 C.ar    1  UNL1        0.0031
      3 C          63.5993   84.6151    8.9173 C.ar    1  UNL1        0.0002
      4 C          62.8156   85.8780    9.1193 C.ar    1  UNL1        0.0045
      5 C          62.0212   86.0747   10.3764 C.ar    1  UNL1        0.0535
      6 C          62.0106   85.0085   11.4314 C.ar    1  UNL1        0.0076
      7 N          62.9649   82.8952   13.7578 N.ar    1  UNL1       -0.2111
      8 N          62.8831   81.5594   14.4353 N.ar    1  UNL1       -0.1488
      9 C          62.6513   80.5181   13.3808 C.ar    1  UNL1        0.1612
     10 C          62.5064   79.0436   13.6145 C.3     1  UNL1        0.0756
     11 N          62.5897   81.2104   12.0515 N.ar    1  UNL1       -0.2101
     12 C          62.7836   82.6795   12.2846 C.ar    1  UNL1        0.1651
     13 C          63.6363   86.8543   15.7886 C.ar    1  UNL1        0.1388
     14 C          62.6900   85.8558   16.3863 C.ar    1  UNL1        0.0384
     15 C          62.4662   84.5361   15.7094 C.ar    1  UNL1        0.0223
     16 C          63.1887   84.2149   14.4348 C.ar    1  UNL1        0.0847
     17 C          64.1351   85.2134   13.8371 C.ar    1  UNL1        0.0223
     18 C          64.3589   86.5332   14.5140 C.ar    1  UNL1        0.0384
     19 C          62.7903   89.2249   16.4324 C.3     1  UNL1        0.2525
     20 O          63.8601   88.1741   16.4656 O.3     1  UNL1       -0.4714
     21 C          61.2375   87.3376   10.5784 C.2     1  UNL1        0.2458
     22 O          60.3901   87.5065   11.8045 O.2     1  UNL1       -0.2701
     23 N          61.3011   88.4317    9.5542 N.am    1  UNL1       -0.3009
     24 H          61.8572   88.3209    8.7494 H       1  UNL1        0.1497
     25 C          60.5173   89.6946    9.7562 C.3     1  UNL1        0.0897
     26 C          61.0368   90.7610   10.6744 C.3     1  UNL1        0.0216
     27 C          62.5110   90.8835   10.9233 C.3     1  UNL1        0.0064
     28 C          63.0815   90.4947   12.2550 C.3     1  UNL1        0.0264
     29 C          64.3527   91.1265   12.7396 C.ar    1  UNL1       -0.0222
     30 C          64.9628   90.6847   14.0367 C.ar    1  UNL1       -0.0043
     31 C          66.2340   91.3166   14.5213 C.ar    1  UNL1       -0.0003
     32 C          66.8952   92.3902   13.7088 C.ar    1  UNL1       -0.0000
     33 C          66.2850   92.8320   12.4117 C.ar    1  UNL1       -0.0003
     34 C          65.0139   92.2002   11.9271 C.ar    1  UNL1       -0.0043
@<TRIPOS>BOND
     1    19    20    1
     2    20    13    1
     3    13    14   ar
     4    14    15   ar
     5    15    16   ar
     6    16     7    1
     7     7     8   ar
     8     8     9   ar
     9     9    10    1
    10     9    11   ar
    11    11    12   ar
    12    12     1    1
    13     1     2   ar
    14     2     3   ar
    15     3     4   ar
    16     4     5   ar
    17     5    21    1
    18    21    22    2
    19    21    23   am
    20    23    25    1
    21    25    26    1
    22    26    27    1
    23    27    28    1
    24    28    29    1
    25    29    30   ar
    26    30    31   ar
    27    31    32   ar
    28    32    33   ar
    29    33    34   ar
    30     5     6   ar
    31    16    17   ar
    32    17    18   ar
    33    18    13   ar
    34    12     7   ar
    35     6     1   ar
    36    34    29   ar
    37    23    24    1
@<TRIPOS>MOLECULE
*****
 34 37 0 0 0
SMALL
GASTEIGER

@<TRIPOS>ATOM
      1 C          62.7504   83.9072   11.3674 C.ar    1  UNL1        0.0360
      2 C          63.2203   83.6855    9.9602 C.ar    1  UNL1        0.0031
      3 C          63.2073   84.8189    8.9777 C.ar    1  UNL1        0.0002
      4 C          62.7244   86.1741    9.4024 C.ar    1  UNL1        0.0045
      5 C          62.2545   86.3958   10.8096 C.ar    1  UNL1        0.0535
      6 C          62.2675   85.2624   11.7920 C.ar    1  UNL1        0.0076
      7 N          62.9104   82.8981   13.8374 N.ar    1  UNL1       -0.2111
      8 N          62.8695   81.5182   14.4241 N.ar    1  UNL1       -0.1488
      9 C          62.6974   80.5411   13.2991 C.ar    1  UNL1        0.1612
     10 C          62.6067   79.0498   13.4326 C.3     1  UNL1        0.0756
     11 N          62.6318   81.3171   12.0171 N.ar    1  UNL1       -0.2101
     12 C          62.7634   82.7738   12.3498 C.ar    1  UNL1        0.1651
     13 C          63.3895   86.7367   16.1365 C.ar    1  UNL1        0.1388
     14 C          64.3292   86.4130   15.0131 C.ar    1  UNL1        0.0384
     15 C          64.1695   85.1335   14.2467 C.ar    1  UNL1        0.0223
     16 C          63.0701   84.1776   14.6038 C.ar    1  UNL1        0.0847
     17 C          62.1304   84.5013   15.7273 C.ar    1  UNL1        0.0223
     18 C          62.2901   85.7808   16.4936 C.ar    1  UNL1        0.0384
     19 C          63.1590   89.3208   16.2740 C.3     1  UNL1        0.2525
     20 O          63.5492   88.0162   16.9029 O.3     1  UNL1       -0.4714
     21 C          61.7716   87.7509   11.2342 C.2     1  UNL1        0.2458
     22 O          60.3072   87.9907   11.4532 O.2     1  UNL1       -0.2701
     23 N          62.7531   88.8664   11.4400 N.am    1  UNL1       -0.3009
     24 H          63.7143   88.7091   11.2964 H       1  UNL1        0.1497
     25 C          62.2702   90.2215   11.8647 C.3     1  UNL1        0.0897
     26 C          63.0801   91.4418   11.5407 C.3     1  UNL1        0.0216
     27 C          64.4449   91.6166   12.1380 C.3     1  UNL1        0.0064
     28 C          64.6399   91.4712   13.6182 C.3     1  UNL1        0.0264
     29 C          65.9387   91.8803   14.2472 C.ar    1  UNL1       -0.0222
     30 C          67.2094   91.8181   13.4525 C.ar    1  UNL1       -0.0043
     31 C          68.5082   92.2272   14.0815 C.ar    1  UNL1       -0.0003
     32 C          68.5365   92.6986   15.5052 C.ar    1  UNL1       -0.0000
     33 C          67.2658   92.7608   16.2999 C.ar    1  UNL1       -0.0003
     34 C          65.9670   92.3517   15.6710 C.ar    1  UNL1       -0.0043
@<TRIPOS>BOND
     1    19    20    1
     2    20    13    1
     3    13    14   ar
     4    14    15   ar
     5    15    16   ar
     6    16     7    1
     7     7     8   ar
     8     8     9   ar
     9     9    10    1
    10     9    11   ar
    11    11    12   ar
    12    12     1    1
    13     1     2   ar
    14     2     3   ar
    15     3     4   ar
    16     4     5   ar
    17     5    21    1
    18    21    22    2
    19    21    23   am
    20    23    25    1
    21    25    26    1
    22    26    27    1
    23    27    28    1
    24    28    29    1
    25    29    30   ar
    26    30    31   ar
    27    31    32   ar
    28    32    33   ar
    29    33    34   ar
    30     5     6   ar
    31    16    17   ar
    32    17    18   ar
    33    18    13   ar
    34    12     7   ar
    35     6     1   ar
    36    34    29   ar
    37    23    24    1
@<TRIPOS>MOLECULE
*****
 34 37 0 0 0
SMALL
GASTEIGER

@<TRIPOS>ATOM
      1 C          61.3994   87.3118    9.5641 C.ar    1  UNL1        0.0360
      2 C          60.1145   87.3019   10.3383 C.ar    1  UNL1        0.0031
      3 C          59.7980   88.4253   11.2805 C.ar    1  UNL1        0.0002
      4 C          60.7663   89.5586   11.4486 C.ar    1  UNL1        0.0045
      5 C          62.0511   89.5684   10.6745 C.ar    1  UNL1        0.0535
      6 C          62.3676   88.4449    9.7323 C.ar    1  UNL1        0.0076
      7 N          62.4554   84.9298    8.9672 N.ar    1  UNL1       -0.2111
      8 N          62.5450   84.0900    7.7277 N.ar    1  UNL1       -0.1488
      9 C          61.8609   84.8294    6.6162 C.ar    1  UNL1        0.1612
     10 C          61.7148   84.3551    5.2007 C.3     1  UNL1        0.0756
     11 N          61.3484   86.1263    7.1689 N.ar    1  UNL1       -0.2101
     12 C          61.7159   86.1883    8.6219 C.ar    1  UNL1        0.1651
     13 C          64.1140   83.8615   13.0117 C.ar    1  UNL1        0.1388
     14 C          63.0174   84.8783   12.8955 C.ar    1  UNL1        0.0384
     15 C          62.4645   85.2344   11.5474 C.ar    1  UNL1        0.0223
     16 C          63.0083   84.5737   10.3154 C.ar    1  UNL1        0.0847
     17 C          64.1049   83.5570   10.4316 C.ar    1  UNL1        0.0223
     18 C          64.6577   83.2009   11.7798 C.ar    1  UNL1        0.0384
     19 C          63.7506   83.0100   15.4392 C.3     1  UNL1        0.2525
     20 O          64.6668   83.5054   14.3599 O.3     1  UNL1       -0.4714
     21 C          63.0193   90.7016   10.8427 C.2     1  UNL1        0.2458
     22 O          63.1917   91.7099    9.7456 O.2     1  UNL1       -0.2701
     23 N          63.8153   90.8265   12.1079 N.am    1  UNL1       -0.3009
     24 H          63.7022   90.1648   12.8280 H       1  UNL1        0.1497
     25 C          64.7836   91.9597   12.2760 C.3     1  UNL1        0.0897
     26 C          65.4686   92.1717   13.5935 C.3     1  UNL1        0.0216
     27 C          65.4300   91.0980   14.6403 C.3     1  UNL1        0.0064
     28 C          64.1249   90.7120   15.2709 C.3     1  UNL1        0.0264
     29 C          63.8809   89.2894   15.6791 C.ar    1  UNL1       -0.0222
     30 C          64.4416   88.1667   14.8574 C.ar    1  UNL1       -0.0043
     31 C          64.1977   86.7441   15.2656 C.ar    1  UNL1       -0.0003
     32 C          63.3930   86.4441   16.4953 C.ar    1  UNL1       -0.0000
     33 C          62.8322   87.5668   17.3170 C.ar    1  UNL1       -0.0003
     34 C          63.0761   88.9893   16.9089 C.ar    1  UNL1       -0.0043
@<TRIPOS>BOND
     1    19    20    1
     2    20    13    1
     3    13    14   ar
     4    14    15   ar
     5    15    16   ar
     6    16     7    1
     7     7     8   ar
     8     8     9   ar
     9     9    10    1
    10     9    11   ar
    11    11    12   ar
    12    12     1    1
    13     1     2   ar
    14     2     3   ar
    15     3     4   ar
    16     4     5   ar
    17     5    21    1
    18    21    22    2
    19    21    23   am
    20    23    25    1
    21    25    26    1
    22    26    27    1
    23    27    28    1
    24    28    29    1
    25    29    30   ar
    26    30    31   ar
    27    31    32   ar
    28    32    33   ar
    29    33    34   ar
    30     5     6   ar
    31    16    17   ar
    32    17    18   ar
    33    18    13   ar
    34    12     7   ar
    35     6     1   ar
    36    34    29   ar
    37    23    24    1
@<TRIPOS>MOLECULE
*****
 34 37 0 0 0
SMALL
GASTEIGER

@<TRIPOS>ATOM
      1 C          61.3839   87.3387    9.8492 C.ar    1  UNL1        0.0360
      2 C          59.9263   87.5090   10.1602 C.ar    1  UNL1        0.0031
      3 C          59.4774   88.6151   11.0685 C.ar    1  UNL1        0.0002
      4 C          60.4860   89.5509   11.6659 C.ar    1  UNL1        0.0045
      5 C          61.9435   89.3807   11.3549 C.ar    1  UNL1        0.0535
      6 C          62.3924   88.2746   10.4466 C.ar    1  UNL1        0.0076
      7 N          62.5763   84.9978    9.3561 N.ar    1  UNL1       -0.2111
      8 N          62.8200   84.1692    8.1297 N.ar    1  UNL1       -0.1488
      9 C          62.2271   84.8919    6.9566 C.ar    1  UNL1        0.1612
     10 C          62.2417   84.4219    5.5322 C.3     1  UNL1        0.0756
     11 N          61.6169   86.1672    7.4580 N.ar    1  UNL1       -0.2101
     12 C          61.8328   86.2326    8.9409 C.ar    1  UNL1        0.1651
     13 C          63.8519   83.9612   13.5451 C.ar    1  UNL1        0.1388
     14 C          64.5353   83.3215   12.3731 C.ar    1  UNL1        0.0384
     15 C          64.1101   83.6670   10.9767 C.ar    1  UNL1        0.0223
     16 C          63.0015   84.6523   10.7524 C.ar    1  UNL1        0.0847
     17 C          62.3182   85.2920   11.9245 C.ar    1  UNL1        0.0223
     18 C          62.7434   84.9465   13.3208 C.ar    1  UNL1        0.0384
     19 C          63.8322   84.4672   16.0933 C.3     1  UNL1        0.2525
     20 O          64.2772   83.6157   14.9415 O.3     1  UNL1       -0.4714
     21 C          62.9521   90.3166   11.9523 C.2     1  UNL1        0.2458
     22 O          63.8186   91.1546   11.0598 O.2     1  UNL1       -0.2701
     23 N          63.0941   90.4144   13.4424 N.am    1  UNL1       -0.3009
     24 H          62.5254   89.8644   14.0283 H       1  UNL1        0.1497
     25 C          64.1027   91.3502   14.0398 C.3     1  UNL1        0.0897
     26 C          65.5427   90.9407   14.1335 C.3     1  UNL1        0.0216
     27 C          66.6190   91.8676   13.6514 C.3     1  UNL1        0.0064
     28 C          66.2663   93.0400   12.7847 C.3     1  UNL1        0.0264
     29 C          66.8720   93.1719   11.4188 C.ar    1  UNL1       -0.0222
     30 C          67.7884   92.1045   10.8984 C.ar    1  UNL1       -0.0043
     31 C          68.3941   92.2365    9.5325 C.ar    1  UNL1       -0.0003
     32 C          68.0835   93.4358    8.6869 C.ar    1  UNL1       -0.0000
     33 C          67.1670   94.5032    9.2073 C.ar    1  UNL1       -0.0003
     34 C          66.5613   94.3713   10.5731 C.ar    1  UNL1       -0.0043
@<TRIPOS>BOND
     1    19    20    1
     2    20    13    1
     3    13    14   ar
     4    14    15   ar
     5    15    16   ar
     6    16     7    1
     7     7     8   ar
     8     8     9   ar
     9     9    10    1
    10     9    11   ar
    11    11    12   ar
    12    12     1    1
    13     1     2   ar
    14     2     3   ar
    15     3     4   ar
    16     4     5   ar
    17     5    21    1
    18    21    22    2
    19    21    23   am
    20    23    25    1
    21    25    26    1
    22    26    27    1
    23    27    28    1
    24    28    29    1
    25    29    30   ar
    26    30    31   ar
    27    31    32   ar
    28    32    33   ar
    29    33    34   ar
    30     5     6   ar
    31    16    17   ar
    32    17    18   ar
    33    18    13   ar
    34    12     7   ar
    35     6     1   ar
    36    34    29   ar
    37    23    24    1
@<TRIPOS>MOLECULE
*****
 34 37 0 0 0
SMALL
GASTEIGER

@<TRIPOS>ATOM
      1 C          61.8316   86.3979    9.0584 C.ar    1  UNL1        0.0360
      2 C          62.8479   85.8173    8.1202 C.ar    1  UNL1        0.0031
      3 C          63.7043   84.6672    8.5606 C.ar    1  UNL1        0.0002
      4 C          63.5445   84.0977    9.9390 C.ar    1  UNL1        0.0045
      5 C          62.5282   84.6783   10.8771 C.ar    1  UNL1        0.0535
      6 C          61.6718   85.8284   10.4368 C.ar    1  UNL1        0.0076
      7 N          61.0471   88.9518    9.1415 N.ar    1  UNL1       -0.2111
      8 N          60.0128   89.7675    8.4239 N.ar    1  UNL1       -0.1488
      9 C          59.3017   88.8678    7.4571 C.ar    1  UNL1        0.1612
     10 C          58.1908   89.2694    6.5325 C.3     1  UNL1        0.0756
     11 N          59.8965   87.4960    7.5771 N.ar    1  UNL1       -0.2101
     12 C          60.9751   87.5479    8.6181 C.ar    1  UNL1        0.1651
     13 C          63.8699   90.4528   12.3083 C.ar    1  UNL1        0.1388
     14 C          63.6030   91.2822   11.0873 C.ar    1  UNL1        0.0384
     15 C          62.6621   90.7819   10.0317 C.ar    1  UNL1        0.0223
     16 C          61.9880   89.4522   10.1971 C.ar    1  UNL1        0.0847
     17 C          62.2548   88.6228   11.4181 C.ar    1  UNL1        0.0223
     18 C          63.1958   89.1231   12.4737 C.ar    1  UNL1        0.0384
     19 C          65.8894   91.9316   13.0045 C.3     1  UNL1        0.2525
     20 O          64.8108   90.9531   13.3639 O.3     1  UNL1       -0.4714
     21 C          62.3684   84.1088   12.2556 C.2     1  UNL1        0.2458
     22 O          61.9817   85.0028   13.3963 O.2     1  UNL1       -0.2701
     23 N          62.5953   82.6453   12.4934 N.am    1  UNL1       -0.3009
     24 H          62.8491   82.0585   11.7448 H       1  UNL1        0.1497
     25 C          62.4355   82.0758   13.8719 C.3     1  UNL1        0.0897
     26 C          63.5317   82.2392   14.8826 C.3     1  UNL1        0.0216
     27 C          63.5576   83.4466   15.7723 C.3     1  UNL1        0.0064
     28 C          64.3472   84.6572   15.3709 C.3     1  UNL1        0.0264
     29 C          63.9438   86.0140   15.8671 C.ar    1  UNL1       -0.0222
     30 C          63.1252   86.1425   17.1175 C.ar    1  UNL1       -0.0043
     31 C          62.7219   87.4993   17.6138 C.ar    1  UNL1       -0.0003
     32 C          63.1371   88.7277   16.8598 C.ar    1  UNL1       -0.0000
     33 C          63.9557   88.5992   15.6094 C.ar    1  UNL1       -0.0003
     34 C          64.3591   87.2425   15.1131 C.ar    1  UNL1       -0.0043
@<TRIPOS>BOND
     1    19    20    1
     2    20    13    1
     3    13    14   ar
     4    14    15   ar
     5    15    16   ar
     6    16     7    1
     7     7     8   ar
     8     8     9   ar
     9     9    10    1
    10     9    11   ar
    11    11    12   ar
    12    12     1    1
    13     1     2   ar
    14     2     3   ar
    15     3     4   ar
    16     4     5   ar
    17     5    21    1
    18    21    22    2
    19    21    23   am
    20    23    25    1
    21    25    26    1
    22    26    27    1
    23    27    28    1
    24    28    29    1
    25    29    30   ar
    26    30    31   ar
    27    31    32   ar
    28    32    33   ar
    29    33    34   ar
    30     5     6   ar
    31    16    17   ar
    32    17    18   ar
    33    18    13   ar
    34    12     7   ar
    35     6     1   ar
    36    34    29   ar
    37    23    24    1
@<TRIPOS>MOLECULE
*****
 34 37 0 0 0
SMALL
GASTEIGER

@<TRIPOS>ATOM
      1 C          63.3898   88.2917   12.9897 C.ar    1  UNL1        0.0360
      2 C          64.0170   89.0080   14.1489 C.ar    1  UNL1        0.0031
      3 C          64.6148   88.2248   15.2799 C.ar    1  UNL1        0.0002
      4 C          64.5854   86.7254   15.2519 C.ar    1  UNL1        0.0045
      5 C          63.9582   86.0091   14.0927 C.ar    1  UNL1        0.0535
      6 C          63.3604   86.7923   12.9617 C.ar    1  UNL1        0.0076
      7 N          63.1899   90.4583   11.4370 N.ar    1  UNL1       -0.2111
      8 N          62.3352   90.8505   10.2685 N.ar    1  UNL1       -0.1488
      9 C          61.4090   89.7096    9.9679 C.ar    1  UNL1        0.1612
     10 C          60.3809   89.6725    8.8763 C.3     1  UNL1        0.0756
     11 N          61.6913   88.6121   10.9508 N.ar    1  UNL1       -0.2101
     12 C          62.7920   89.0749   11.8587 C.ar    1  UNL1        0.1651
     13 C          66.3868   92.9877   13.3430 C.ar    1  UNL1        0.1388
     14 C          65.4153   92.2339   14.2020 C.ar    1  UNL1        0.0384
     15 C          64.3497   91.3907   13.5667 C.ar    1  UNL1        0.0223
     16 C          64.2556   91.3014   12.0723 C.ar    1  UNL1        0.0847
     17 C          65.2270   92.0553   11.2133 C.ar    1  UNL1        0.0223
     18 C          66.2926   92.8984   11.8486 C.ar    1  UNL1        0.0384
     19 C          67.9050   93.5383   15.3781 C.3     1  UNL1        0.2525
     20 O          67.4524   93.8308   13.9783 O.3     1  UNL1       -0.4714
     21 C          63.9288   84.5097   14.0647 C.2     1  UNL1        0.2458
     22 O          65.2122   83.7337   14.0907 O.2     1  UNL1       -0.2701
     23 N          62.6160   83.7862   14.0105 N.am    1  UNL1       -0.3009
     24 H          61.7736   84.2954   13.9934 H       1  UNL1        0.1497
     25 C          62.5865   82.2867   13.9824 C.3     1  UNL1        0.0897
     26 C          63.3958   81.5396   12.9641 C.3     1  UNL1        0.0216
     27 C          63.2111   81.8252   11.5032 C.3     1  UNL1        0.0064
     28 C          63.9568   82.9568   10.8601 C.3     1  UNL1        0.0264
     29 C          63.2085   84.0149   10.1049 C.ar    1  UNL1       -0.0222
     30 C          62.0772   84.7478   10.7630 C.ar    1  UNL1       -0.0043
     31 C          61.3288   85.8058   10.0078 C.ar    1  UNL1       -0.0003
     32 C          61.7116   86.1311    8.5944 C.ar    1  UNL1       -0.0000
     33 C          62.8429   85.3982    7.9363 C.ar    1  UNL1       -0.0003
     34 C          63.5913   84.3402    8.6914 C.ar    1  UNL1       -0.0043
@<TRIPOS>BOND
     1    19    20    1
     2    20    13    1
     3    13    14   ar
     4    14    15   ar
     5    15    16   ar
     6    16     7    1
     7     7     8   ar
     8     8     9   ar
     9     9    10    1
    10     9    11   ar
    11    11    12   ar
    12    12     1    1
    13     1     2   ar
    14     2     3   ar
    15     3     4   ar
    16     4     5   ar
    17     5    21    1
    18    21    22    2
    19    21    23   am
    20    23    25    1
    21    25    26    1
    22    26    27    1
    23    27    28    1
    24    28    29    1
    25    29    30   ar
    26    30    31   ar
    27    31    32   ar
    28    32    33   ar
    29    33    34   ar
    30     5     6   ar
    31    16    17   ar
    32    17    18   ar
    33    18    13   ar
    34    12     7   ar
    35     6     1   ar
    36    34    29   ar
    37    23    24    1
