@<TRIPOS>MOLECULE
*****
 22 24 0 0 0
SMALL
GASTEIGER

@<TRIPOS>ATOM
      1 C          64.7653   91.9482   12.1899 C.ar    1  UNL1        0.0428
      2 C          63.6987   91.3981   11.2900 C.ar    1  UNL1        0.0077
      3 C          63.0601   90.0775   11.6039 C.ar    1  UNL1        0.0006
      4 C          63.4882   89.3071   12.8176 C.ar    1  UNL1        0.0013
      5 C          64.5549   89.8571   13.7175 C.ar    1  UNL1        0.0150
      6 C          65.1934   91.1776   13.4036 C.ar    1  UNL1        0.0540
      7 N          66.2600   91.7277   14.3035 N.pl3   1  UNL1       -0.3043
      8 C          65.8900   92.3159   15.6328 C.3     1  UNL1        0.1079
      9 C          66.9566   92.8660   16.5326 C.3     1  UNL1        0.0903
     10 N          68.3933   92.8278   16.1032 N.3     1  UNL1       -0.2946
     11 C          68.7634   92.2395   14.7739 C.3     1  UNL1        0.0903
     12 C          67.6968   91.6894   13.8740 C.3     1  UNL1        0.1079
     13 H          68.8983   92.2954   16.8117 H       1  UNL1        0.1233
     14 S          65.4038   93.2687   11.8761 S.3     1  UNL1       -0.0848
     15 CL         67.5596   96.0289    8.0376 Cl      1  UNL1       -0.0813
     16 C          67.4636   94.7577    8.8281 C.ar    1  UNL1        0.0687
     17 C          68.3494   93.5955    8.4898 C.ar    1  UNL1        0.0123
     18 C          68.2534   92.3243    9.2803 C.ar    1  UNL1        0.0014
     19 C          67.2715   92.2153   10.4090 C.ar    1  UNL1        0.0074
     20 C          66.3857   93.3776   10.7473 C.ar    1  UNL1        0.0409
     21 C          66.4818   94.6488    9.9568 C.ar    1  UNL1        0.0741
     22 CL         65.5959   95.8111   10.2952 Cl      1  UNL1       -0.0808
@<TRIPOS>BOND
     1    15    16    1
     2    16    17   ar
     3    17    18   ar
     4    18    19   ar
     5    19    20   ar
     6    20    14    1
     7    14     1    1
     8     1     2   ar
     9     2     3   ar
    10     3     4   ar
    11     4     5   ar
    12     5     6   ar
    13     6     7    1
    14     7     8    1
    15     8     9    1
    16     9    10    1
    17    10    11    1
    18    11    12    1
    19    20    21   ar
    20    21    22    1
    21    21    16   ar
    22     6     1   ar
    23    12     7    1
    24    10    13    1
@<TRIPOS>MOLECULE
*****
 22 24 0 0 0
SMALL
GASTEIGER

@<TRIPOS>ATOM
      1 C          62.6142   85.0734   11.3174 C.ar    1  UNL1        0.0428
      2 C          62.7428   84.6707    9.8782 C.ar    1  UNL1        0.0077
      3 C          63.7389   83.6226    9.4788 C.ar    1  UNL1        0.0006
      4 C          64.6062   82.9773   10.5186 C.ar    1  UNL1        0.0013
      5 C          64.4776   83.3800   11.9578 C.ar    1  UNL1        0.0150
      6 C          63.4816   84.4280   12.3572 C.ar    1  UNL1        0.0540
      7 N          63.3529   84.8307   13.7964 N.pl3   1  UNL1       -0.3043
      8 C          62.3800   84.1202   14.6899 C.3     1  UNL1        0.1079
      9 C          62.2513   84.5229   16.1291 C.3     1  UNL1        0.0903
     10 N          63.0956   85.6361   16.6748 N.3     1  UNL1       -0.2946
     11 C          64.0687   86.3467   15.7812 C.3     1  UNL1        0.0903
     12 C          64.1973   85.9440   14.3420 C.3     1  UNL1        0.1079
     13 H          63.6360   85.2448   17.4463 H       1  UNL1        0.1233
     14 S          61.6181   86.1214   11.7168 S.3     1  UNL1       -0.0848
     15 CL         62.6748   90.9978   10.2660 Cl      1  UNL1       -0.0813
     16 C          61.8894   89.7318   10.0914 C.ar    1  UNL1        0.0687
     17 C          60.8471   89.6380    9.0169 C.ar    1  UNL1        0.0123
     18 C          60.0617   88.3720    8.8423 C.ar    1  UNL1        0.0014
     19 C          60.3187   87.1998    9.7423 C.ar    1  UNL1        0.0074
     20 C          61.3611   87.2936   10.8168 C.ar    1  UNL1        0.0409
     21 C          62.1464   88.5596   10.9914 C.ar    1  UNL1        0.0741
     22 CL         63.1889   88.6534   12.0660 Cl      1  UNL1       -0.0808
@<TRIPOS>BOND
     1    15    16    1
     2    16    17   ar
     3    17    18   ar
     4    18    19   ar
     5    19    20   ar
     6    20    14    1
     7    14     1    1
     8     1     2   ar
     9     2     3   ar
    10     3     4   ar
    11     4     5   ar
    12     5     6   ar
    13     6     7    1
    14     7     8    1
    15     8     9    1
    16     9    10    1
    17    10    11    1
    18    11    12    1
    19    20    21   ar
    20    21    22    1
    21    21    16   ar
    22     6     1   ar
    23    12     7    1
    24    10    13    1
@<TRIPOS>MOLECULE
*****
 22 24 0 0 0
SMALL
GASTEIGER

@<TRIPOS>ATOM
      1 C          63.3841   90.4430   12.7877 C.ar    1  UNL1        0.0428
      2 C          63.7336   91.5320   11.8172 C.ar    1  UNL1        0.0077
      3 C          65.0282   92.2763   11.9593 C.ar    1  UNL1        0.0006
      4 C          65.9732   91.9316   13.0719 C.ar    1  UNL1        0.0013
      5 C          65.6238   90.8426   14.0425 C.ar    1  UNL1        0.0150
      6 C          64.3293   90.0983   13.9004 C.ar    1  UNL1        0.0540
      7 N          63.9798   89.0093   14.8709 N.pl3   1  UNL1       -0.3043
      8 C          63.2711   89.3435   16.1499 C.3     1  UNL1        0.1079
      9 C          62.9216   88.2545   17.1205 C.3     1  UNL1        0.0903
     10 N          63.2809   86.8313   16.8120 N.3     1  UNL1       -0.2946
     11 C          63.9897   86.4970   15.5330 C.3     1  UNL1        0.0903
     12 C          64.3392   87.5860   14.5624 C.3     1  UNL1        0.1079
     13 H          62.4097   86.3008   16.8132 H       1  UNL1        0.1233
     14 S          62.0896   89.6987   12.6457 S.3     1  UNL1       -0.0848
     15 CL         59.7358   88.8239    8.0965 Cl      1  UNL1       -0.0813
     16 C          60.6790   88.3843    9.1769 C.ar    1  UNL1        0.0687
     17 C          61.3884   87.0676    9.0630 C.ar    1  UNL1        0.0123
     18 C          62.3316   86.6279   10.1434 C.ar    1  UNL1        0.0014
     19 C          62.5653   87.5049   11.3376 C.ar    1  UNL1        0.0074
     20 C          61.8559   88.8216   11.4514 C.ar    1  UNL1        0.0409
     21 C          60.9127   89.2613   10.3711 C.ar    1  UNL1        0.0741
     22 CL         60.2033   90.5781   10.4850 Cl      1  UNL1       -0.0808
@<TRIPOS>BOND
     1    15    16    1
     2    16    17   ar
     3    17    18   ar
     4    18    19   ar
     5    19    20   ar
     6    20    14    1
     7    14     1    1
     8     1     2   ar
     9     2     3   ar
    10     3     4   ar
    11     4     5   ar
    12     5     6   ar
    13     6     7    1
    14     7     8    1
    15     8     9    1
    16     9    10    1
    17    10    11    1
    18    11    12    1
    19    20    21   ar
    20    21    22    1
    21    21    16   ar
    22     6     1   ar
    23    12     7    1
    24    10    13    1
@<TRIPOS>MOLECULE
*****
 22 24 0 0 0
SMALL
GASTEIGER

@<TRIPOS>ATOM
      1 C          60.9085   87.2804    9.8861 C.ar    1  UNL1        0.0428
      2 C          60.0704   86.4602    8.9508 C.ar    1  UNL1        0.0077
      3 C          59.3346   87.1243    7.8249 C.ar    1  UNL1        0.0006
      4 C          59.4370   88.6086    7.6343 C.ar    1  UNL1        0.0013
      5 C          60.2751   89.4288    8.5696 C.ar    1  UNL1        0.0150
      6 C          61.0108   88.7648    9.6955 C.ar    1  UNL1        0.0540
      7 N          61.8489   89.5850   10.6308 N.pl3   1  UNL1       -0.3043
      8 C          62.8408   90.5679   10.0829 C.3     1  UNL1        0.1079
      9 C          63.6789   91.3881   11.0182 C.3     1  UNL1        0.0903
     10 N          63.5251   91.2255   12.5014 N.3     1  UNL1       -0.2946
     11 C          62.5332   90.2427   13.0493 C.3     1  UNL1        0.0903
     12 C          61.6951   89.4224   12.1140 C.3     1  UNL1        0.1079
     13 H          63.2692   92.1403   12.8729 H       1  UNL1        0.1233
     14 S          61.6442   86.6164   11.0120 S.3     1  UNL1       -0.0848
     15 CL         64.2016   82.4351   12.7374 Cl      1  UNL1       -0.0813
     16 C          63.7797   83.3244   11.6054 C.ar    1  UNL1        0.0687
     17 C          64.2147   83.0122   10.2043 C.ar    1  UNL1        0.0123
     18 C          63.7928   83.9014    9.0723 C.ar    1  UNL1        0.0014
     19 C          62.9360   85.1028    9.3415 C.ar    1  UNL1        0.0074
     20 C          62.5011   85.4150   10.7427 C.ar    1  UNL1        0.0409
     21 C          62.9229   84.5257   11.8747 C.ar    1  UNL1        0.0741
     22 CL         62.4880   84.8380   13.2759 Cl      1  UNL1       -0.0808
@<TRIPOS>BOND
     1    15    16    1
     2    16    17   ar
     3    17    18   ar
     4    18    19   ar
     5    19    20   ar
     6    20    14    1
     7    14     1    1
     8     1     2   ar
     9     2     3   ar
    10     3     4   ar
    11     4     5   ar
    12     5     6   ar
    13     6     7    1
    14     7     8    1
    15     8     9    1
    16     9    10    1
    17    10    11    1
    18    11    12    1
    19    20    21   ar
    20    21    22    1
    21    21    16   ar
    22     6     1   ar
    23    12     7    1
    24    10    13    1
@<TRIPOS>MOLECULE
*****
 22 24 0 0 0
SMALL
GASTEIGER

@<TRIPOS>ATOM
      1 C          61.4565   88.0589   10.2023 C.ar    1  UNL1        0.0428
      2 C          60.6577   89.1742    9.5957 C.ar    1  UNL1        0.0077
      3 C          59.8096   88.9172    8.3854 C.ar    1  UNL1        0.0006
      4 C          59.7604   87.5449    7.7818 C.ar    1  UNL1        0.0013
      5 C          60.5592   86.4296    8.3883 C.ar    1  UNL1        0.0150
      6 C          61.4073   86.6866    9.5986 C.ar    1  UNL1        0.0540
      7 N          62.2062   85.5713   10.2051 N.pl3   1  UNL1       -0.3043
      8 C          62.0832   85.2710   11.6696 C.3     1  UNL1        0.1079
      9 C          62.8821   84.1557   12.2762 C.3     1  UNL1        0.0903
     10 N          63.8039   83.3407   11.4183 N.3     1  UNL1       -0.2946
     11 C          63.9269   83.6410    9.9538 C.3     1  UNL1        0.0903
     12 C          63.1280   84.7563    9.3472 C.3     1  UNL1        0.1079
     13 H          63.4973   82.3710   11.4953 H       1  UNL1        0.1233
     14 S          62.3046   88.3159   11.4125 S.3     1  UNL1       -0.0848
     15 CL         65.3531   91.4997   14.1639 Cl      1  UNL1       -0.0813
     16 C          64.6077   91.1848   12.9009 C.ar    1  UNL1        0.0687
     17 C          64.6410   92.1469   11.7506 C.ar    1  UNL1        0.0123
     18 C          63.8956   91.8320   10.4876 C.ar    1  UNL1        0.0014
     19 C          63.1168   90.5551   10.3749 C.ar    1  UNL1        0.0074
     20 C          63.0834   89.5930   11.5252 C.ar    1  UNL1        0.0409
     21 C          63.8289   89.9078   12.7882 C.ar    1  UNL1        0.0741
     22 CL         63.7955   88.9456   13.9385 Cl      1  UNL1       -0.0808
@<TRIPOS>BOND
     1    15    16    1
     2    16    17   ar
     3    17    18   ar
     4    18    19   ar
     5    19    20   ar
     6    20    14    1
     7    14     1    1
     8     1     2   ar
     9     2     3   ar
    10     3     4   ar
    11     4     5   ar
    12     5     6   ar
    13     6     7    1
    14     7     8    1
    15     8     9    1
    16     9    10    1
    17    10    11    1
    18    11    12    1
    19    20    21   ar
    20    21    22    1
    21    21    16   ar
    22     6     1   ar
    23    12     7    1
    24    10    13    1
@<TRIPOS>MOLECULE
*****
 22 24 0 0 0
SMALL
GASTEIGER

@<TRIPOS>ATOM
      1 C          62.3988   87.9886   11.5029 C.ar    1  UNL1        0.0428
      2 C          63.1505   88.8917   12.4353 C.ar    1  UNL1        0.0077
      3 C          63.4933   90.2893   12.0119 C.ar    1  UNL1        0.0006
      4 C          63.0843   90.7838   10.6561 C.ar    1  UNL1        0.0013
      5 C          62.3326   89.8807    9.7237 C.ar    1  UNL1        0.0150
      6 C          61.9898   88.4831   10.1471 C.ar    1  UNL1        0.0540
      7 N          61.2381   87.5801    9.2147 N.pl3   1  UNL1       -0.3043
      8 C          59.7823   87.8227    8.9468 C.3     1  UNL1        0.1079
      9 C          59.0306   86.9196    8.0144 C.3     1  UNL1        0.0903
     10 N          59.7346   85.7739    7.3499 N.3     1  UNL1       -0.2946
     11 C          61.1905   85.5312    7.6177 C.3     1  UNL1        0.0903
     12 C          61.9422   86.4343    8.5501 C.3     1  UNL1        0.1079
     13 H          59.6396   85.9135    6.3439 H       1  UNL1        0.1233
     14 S          62.0560   86.5910   11.9263 S.3     1  UNL1       -0.0848
     15 CL         64.6291   82.1311   12.6249 Cl      1  UNL1       -0.0813
     16 C          64.3403   83.5431   13.0407 C.ar    1  UNL1        0.0687
     17 C          65.0494   84.1371   14.2214 C.ar    1  UNL1        0.0123
     18 C          64.7607   85.5492   14.6372 C.ar    1  UNL1        0.0014
     19 C          63.7629   86.3671   13.8722 C.ar    1  UNL1        0.0074
     20 C          63.0538   85.7731   12.6914 C.ar    1  UNL1        0.0409
     21 C          63.3426   84.3610   12.2756 C.ar    1  UNL1        0.0741
     22 CL         62.6334   83.7670   11.0948 Cl      1  UNL1       -0.0808
@<TRIPOS>BOND
     1    15    16    1
     2    16    17   ar
     3    17    18   ar
     4    18    19   ar
     5    19    20   ar
     6    20    14    1
     7    14     1    1
     8     1     2   ar
     9     2     3   ar
    10     3     4   ar
    11     4     5   ar
    12     5     6   ar
    13     6     7    1
    14     7     8    1
    15     8     9    1
    16     9    10    1
    17    10    11    1
    18    11    12    1
    19    20    21   ar
    20    21    22    1
    21    21    16   ar
    22     6     1   ar
    23    12     7    1
    24    10    13    1
@<TRIPOS>MOLECULE
*****
 22 24 0 0 0
SMALL
GASTEIGER

@<TRIPOS>ATOM
      1 C          62.5766   85.7083   11.0561 C.ar    1  UNL1        0.0428
      2 C          62.6126   85.5648    9.5634 C.ar    1  UNL1        0.0077
      3 C          63.3351   84.4084    8.9383 C.ar    1  UNL1        0.0006
      4 C          64.0214   83.3954    9.8059 C.ar    1  UNL1        0.0013
      5 C          63.9854   83.5388   11.2986 C.ar    1  UNL1        0.0150
      6 C          63.2630   84.6952   11.9237 C.ar    1  UNL1        0.0540
      7 N          63.2269   84.8386   13.4164 N.pl3   1  UNL1       -0.3043
      8 C          62.1860   84.1113   14.2148 C.3     1  UNL1        0.1079
      9 C          62.1500   84.2547   15.7075 C.3     1  UNL1        0.0903
     10 N          63.1548   85.1255   16.4018 N.3     1  UNL1       -0.2946
     11 C          64.1957   85.8529   15.6034 C.3     1  UNL1        0.0903
     12 C          64.2318   85.7095   14.1107 C.3     1  UNL1        0.1079
     13 H          63.6536   84.5300   17.0628 H       1  UNL1        0.1233
     14 S          61.8542   86.8647   11.6812 S.3     1  UNL1       -0.0848
     15 CL         62.9219   91.5812    9.7801 Cl      1  UNL1       -0.0813
     16 C          63.0711   90.5520   10.8610 C.ar    1  UNL1        0.0687
     17 C          63.9034   90.8519   12.0724 C.ar    1  UNL1        0.0123
     18 C          64.0526   89.8227   13.1533 C.ar    1  UNL1        0.0014
     19 C          63.3696   88.4936   13.0229 C.ar    1  UNL1        0.0074
     20 C          62.5373   88.1938   11.8116 C.ar    1  UNL1        0.0409
     21 C          62.3880   89.2230   10.7307 C.ar    1  UNL1        0.0741
     22 CL         61.5557   88.9231    9.5193 Cl      1  UNL1       -0.0808
@<TRIPOS>BOND
     1    15    16    1
     2    16    17   ar
     3    17    18   ar
     4    18    19   ar
     5    19    20   ar
     6    20    14    1
     7    14     1    1
     8     1     2   ar
     9     2     3   ar
    10     3     4   ar
    11     4     5   ar
    12     5     6   ar
    13     6     7    1
    14     7     8    1
    15     8     9    1
    16     9    10    1
    17    10    11    1
    18    11    12    1
    19    20    21   ar
    20    21    22    1
    21    21    16   ar
    22     6     1   ar
    23    12     7    1
    24    10    13    1
@<TRIPOS>MOLECULE
*****
 22 24 0 0 0
SMALL
GASTEIGER

@<TRIPOS>ATOM
      1 C          62.6709   86.9049   12.0969 C.ar    1  UNL1        0.0428
      2 C          62.5755   88.2878   11.5238 C.ar    1  UNL1        0.0077
      3 C          63.2605   89.4327   12.2094 C.ar    1  UNL1        0.0006
      4 C          64.0409   89.1947   13.4681 C.ar    1  UNL1        0.0013
      5 C          64.1363   87.8117   14.0412 C.ar    1  UNL1        0.0150
      6 C          63.4514   86.6669   13.3556 C.ar    1  UNL1        0.0540
      7 N          63.5468   85.2840   13.9287 N.pl3   1  UNL1       -0.3043
      8 C          62.7354   84.9144   15.1350 C.3     1  UNL1        0.1079
      9 C          62.8308   83.5315   15.7081 C.3     1  UNL1        0.0903
     10 N          63.7376   82.5181   15.0750 N.3     1  UNL1       -0.2946
     11 C          64.5491   82.8877   13.8687 C.3     1  UNL1        0.0903
     12 C          64.4537   84.2706   13.2956 C.3     1  UNL1        0.1079
     13 H          63.1526   81.7273   14.8053 H       1  UNL1        0.1233
     14 S          61.9860   85.7600   11.4113 S.3     1  UNL1       -0.0848
     15 CL         62.2769   84.7779    6.3171 Cl      1  UNL1       -0.0813
     16 C          61.5919   85.4409    7.4752 C.ar    1  UNL1        0.0687
     17 C          60.3673   86.2757    7.2443 C.ar    1  UNL1        0.0123
     18 C          59.6822   86.9387    8.4024 C.ar    1  UNL1        0.0014
     19 C          60.2218   86.7668    9.7914 C.ar    1  UNL1        0.0074
     20 C          61.4464   85.9319   10.0223 C.ar    1  UNL1        0.0409
     21 C          62.1314   85.2690    8.8642 C.ar    1  UNL1        0.0741
     22 CL         63.3561   84.4341    9.0951 Cl      1  UNL1       -0.0808
@<TRIPOS>BOND
     1    15    16    1
     2    16    17   ar
     3    17    18   ar
     4    18    19   ar
     5    19    20   ar
     6    20    14    1
     7    14     1    1
     8     1     2   ar
     9     2     3   ar
    10     3     4   ar
    11     4     5   ar
    12     5     6   ar
    13     6     7    1
    14     7     8    1
    15     8     9    1
    16     9    10    1
    17    10    11    1
    18    11    12    1
    19    20    21   ar
    20    21    22    1
    21    21    16   ar
    22     6     1   ar
    23    12     7    1
    24    10    13    1
@<TRIPOS>MOLECULE
*****
 22 24 0 0 0
SMALL
GASTEIGER

@<TRIPOS>ATOM
      1 C          63.1402   86.4606   12.5019 C.ar    1  UNL1        0.0428
      2 C          63.4248   87.8411   13.0148 C.ar    1  UNL1        0.0077
      3 C          64.2205   88.0244   14.2732 C.ar    1  UNL1        0.0006
      4 C          64.7314   86.8271   15.0186 C.ar    1  UNL1        0.0013
      5 C          64.4467   85.4466   14.5056 C.ar    1  UNL1        0.0150
      6 C          63.6512   85.2633   13.2473 C.ar    1  UNL1        0.0540
      7 N          63.3665   83.8828   12.7343 N.pl3   1  UNL1       -0.3043
      8 C          63.9615   83.4281   11.4346 C.3     1  UNL1        0.1079
      9 C          63.6769   82.0476   10.9217 C.3     1  UNL1        0.0903
     10 N          62.7972   81.1218   11.7084 N.3     1  UNL1       -0.2946
     11 C          62.2021   81.5764   13.0081 C.3     1  UNL1        0.0903
     12 C          62.4868   82.9569   13.5211 C.3     1  UNL1        0.1079
     13 H          63.3526   80.2912   11.9134 H       1  UNL1        0.1233
     14 S          62.3446   86.2773   11.2436 S.3     1  UNL1       -0.0848
     15 CL         59.3193   88.2454    7.5053 Cl      1  UNL1       -0.0813
     16 C          60.1114   88.4278    8.7660 C.ar    1  UNL1        0.0687
     17 C          60.1830   89.7766    9.4182 C.ar    1  UNL1        0.0123
     18 C          60.9751   89.9591   10.6789 C.ar    1  UNL1        0.0014
     19 C          61.6956   88.7926   11.2873 C.ar    1  UNL1        0.0074
     20 C          61.6241   87.4438   10.6351 C.ar    1  UNL1        0.0409
     21 C          60.8319   87.2614    9.3745 C.ar    1  UNL1        0.0741
     22 CL         60.7604   85.9124    8.7222 Cl      1  UNL1       -0.0808
@<TRIPOS>BOND
     1    15    16    1
     2    16    17   ar
     3    17    18   ar
     4    18    19   ar
     5    19    20   ar
     6    20    14    1
     7    14     1    1
     8     1     2   ar
     9     2     3   ar
    10     3     4   ar
    11     4     5   ar
    12     5     6   ar
    13     6     7    1
    14     7     8    1
    15     8     9    1
    16     9    10    1
    17    10    11    1
    18    11    12    1
    19    20    21   ar
    20    21    22    1
    21    21    16   ar
    22     6     1   ar
    23    12     7    1
    24    10    13    1
