@<TRIPOS>MOLECULE
*****
 36 41 0 0 0
SMALL
GASTEIGER

@<TRIPOS>ATOM
      1 C          63.7188   84.3326   13.8632 C.2     1  UNL1        0.1558
      2 N          64.4891   84.8203   15.0543 N.2     1  UNL1       -0.2402
      3 C          64.5373   86.3182   14.9935 C.2     1  UNL1        0.0929
      4 C          63.7967   86.7564   13.7648 C.2     1  UNL1        0.0093
      5 C          63.2908   85.5292   13.0662 C.3     1  UNL1        0.1374
      6 N          62.5059   85.6599   11.7947 N.pl3   1  UNL1       -0.3295
      7 C          62.2269   87.0178   11.2217 C.2     1  UNL1        0.0215
      8 C          62.7327   88.2450   11.9203 C.2     1  UNL1        0.0322
      9 C          62.4537   89.6029   11.3474 C.2     1  UNL1        0.1707
     10 O          62.9596   90.8301   12.0460 O.2     1  UNL1       -0.2916
     11 C          61.6688   89.7335   10.0759 C.3     1  UNL1        0.0693
     12 C          61.1629   88.5063    9.3773 C.3     1  UNL1        0.0141
     13 C          61.4419   87.1484    9.9502 C.3     1  UNL1        0.0411
     14 C          63.5177   88.1143   13.1919 C.3     1  UNL1        0.1049
     15 H          62.1739   84.8544   11.3362 H       1  UNL1        0.1471
     16 C          64.0236   89.3415   13.8905 C.ar    1  UNL1        0.1312
     17 C          63.5877   89.8308   15.2398 C.ar    1  UNL1        0.0373
     18 C          64.3489   91.0866   15.5457 C.ar    1  UNL1        0.0472
     19 C          65.2552   91.3734   14.3854 C.ar    1  UNL1        0.1774
     20 O          65.0542   90.2949   13.3625 O.2     1  UNL1       -0.4506
     21 S          66.1973   92.5349   14.2686 S.3     1  UNL1       -0.0117
     22 C          66.4975   93.1245   12.9225 C.2     1  UNL1        0.1967
     23 N          66.1628   94.5165   12.4751 N.2     1  UNL1       -0.2196
     24 C          66.6437   94.6780   11.0634 C.2     1  UNL1        0.0996
     25 C          66.5878   95.8348   10.1102 C.2     1  UNL1        0.0497
     26 C          67.1639   95.6992    8.7318 C.2     1  UNL1        0.1378
     27 F          67.1079   96.8560    7.7786 F       1  UNL1       -0.2045
     28 C          67.7958   94.4070    8.3068 C.2     1  UNL1        0.0099
     29 C          67.8517   93.2502    9.2600 C.3     1  UNL1        0.0757
     30 C          67.2757   93.3857   10.6384 C.2     1  UNL1        0.0832
     31 N          67.1853   92.4256   11.7874 N.2     1  UNL1       -0.2234
     32 C          63.4274   82.8999   13.5278 C.2     1  UNL1        0.3569
     33 O          63.7449   81.8184   14.5176 O.2     1  UNL1       -0.2435
     34 O          62.8187   82.5486   12.2027 O.3     1  UNL1       -0.4446
     35 C          64.2317   83.2252   10.1301 C.3     1  UNL1        0.0513
     36 C          63.6995   82.1668   11.0501 C.3     1  UNL1        0.2089
@<TRIPOS>BOND
     1    35    36    1
     2    36    34    1
     3    34    32    1
     4    32    33    2
     5    32     1    1
     6     1     2    2
     7     2     3    1
     8     3     4    2
     9     4     5    1
    10     5     6    1
    11     6     7    1
    12     7     8    2
    13     8     9    1
    14     9    10    2
    15     9    11    1
    16    11    12    1
    17    12    13    1
    18     8    14    1
    19    14    16    1
    20    16    17   ar
    21    17    18   ar
    22    18    19   ar
    23    19    21    1
    24    21    22    1
    25    22    23    2
    26    23    24    1
    27    24    25    2
    28    25    26    1
    29    26    27    1
    30    26    28    2
    31    28    29    1
    32    29    30    1
    33    30    31    2
    34    19    20   ar
    35     5     1    1
    36    13     7    1
    37    20    16   ar
    38    14     4    1
    39    31    22    1
    40    30    24    1
    41     6    15    1
@<TRIPOS>MOLECULE
*****
 36 41 0 0 0
SMALL
GASTEIGER

@<TRIPOS>ATOM
      1 C          60.8652   88.1526    9.5749 C.2     1  UNL1        0.1558
      2 N          60.9602   89.6395    9.7486 N.2     1  UNL1       -0.2402
      3 C          61.8262   89.9123   10.9426 C.2     1  UNL1        0.0929
      4 C          62.2665   88.5940   11.5068 C.2     1  UNL1        0.0093
      5 C          61.6725   87.5064   10.6615 C.3     1  UNL1        0.1374
      6 N          61.9435   86.0683   10.9905 N.pl3   1  UNL1       -0.3295
      7 C          62.8085   85.7176   12.1648 C.2     1  UNL1        0.0215
      8 C          63.4025   86.8052   13.0101 C.2     1  UNL1        0.0322
      9 C          64.2675   86.4546   14.1843 C.2     1  UNL1        0.1707
     10 O          64.8614   87.5422   15.0295 O.2     1  UNL1       -0.2916
     11 C          64.5385   85.0165   14.5133 C.3     1  UNL1        0.0693
     12 C          63.9445   83.9289   13.6680 C.3     1  UNL1        0.0141
     13 C          63.0795   84.2795   12.4938 C.3     1  UNL1        0.0411
     14 C          63.1314   88.2434   12.6810 C.3     1  UNL1        0.1049
     15 H          61.5537   85.3545   10.4357 H       1  UNL1        0.1471
     16 C          63.7254   89.3309   13.5263 C.ar    1  UNL1        0.1312
     17 C          63.2611   89.7382   14.8932 C.ar    1  UNL1        0.0373
     18 C          64.1367   90.8611   15.3648 C.ar    1  UNL1        0.0472
     19 C          65.1422   91.1479   14.2892 C.ar    1  UNL1        0.1774
     20 O          64.8880   90.2022   13.1530 O.2     1  UNL1       -0.4506
     21 S          66.2137   92.1963   14.3408 S.3     1  UNL1       -0.0117
     22 C          66.3856   93.1500   13.1960 C.2     1  UNL1        0.1967
     23 N          66.9440   92.8143   11.8450 N.2     1  UNL1       -0.2196
     24 C          66.9328   94.0638   11.0151 C.2     1  UNL1        0.0996
     25 C          67.3644   94.3358    9.6045 C.2     1  UNL1        0.0497
     26 C          67.2304   95.7159    9.0322 C.2     1  UNL1        0.1378
     27 F          67.6620   95.9878    7.6216 F       1  UNL1       -0.2045
     28 C          66.6650   96.8238    9.8703 C.2     1  UNL1        0.0099
     29 C          66.2334   96.5518   11.2809 C.3     1  UNL1        0.0757
     30 C          66.3673   95.1718   11.8533 C.2     1  UNL1        0.0832
     31 N          66.0291   94.6071   13.2012 N.2     1  UNL1       -0.2234
     32 C          60.0976   87.4374    8.5029 C.2     1  UNL1        0.3569
     33 O          59.1419   88.1968    7.6311 O.2     1  UNL1       -0.2435
     34 O          60.2857   85.9628    8.3025 O.3     1  UNL1       -0.4446
     35 C          62.7319   85.2116    7.8532 C.3     1  UNL1        0.0513
     36 C          61.3384   85.4623    7.3583 C.3     1  UNL1        0.2089
@<TRIPOS>BOND
     1    35    36    1
     2    36    34    1
     3    34    32    1
     4    32    33    2
     5    32     1    1
     6     1     2    2
     7     2     3    1
     8     3     4    2
     9     4     5    1
    10     5     6    1
    11     6     7    1
    12     7     8    2
    13     8     9    1
    14     9    10    2
    15     9    11    1
    16    11    12    1
    17    12    13    1
    18     8    14    1
    19    14    16    1
    20    16    17   ar
    21    17    18   ar
    22    18    19   ar
    23    19    21    1
    24    21    22    1
    25    22    23    2
    26    23    24    1
    27    24    25    2
    28    25    26    1
    29    26    27    1
    30    26    28    2
    31    28    29    1
    32    29    30    1
    33    30    31    2
    34    19    20   ar
    35     5     1    1
    36    13     7    1
    37    20    16   ar
    38    14     4    1
    39    31    22    1
    40    30    24    1
    41     6    15    1
