@<TRIPOS>MOLECULE
*****
 32 36 0 0 0
SMALL
GASTEIGER

@<TRIPOS>ATOM
      1 N          65.3432   92.4820   12.5850 N.am    1  UNL1       -0.2527
      2 C          66.0563   91.7916   13.7097 C.2     1  UNL1        0.2545
      3 O          67.1204   92.5159   14.4799 O.2     1  UNL1       -0.2723
      4 C          62.1511   90.3093   10.2744 C.ar    1  UNL1        0.0504
      5 C          62.2386   90.1505   11.7633 C.ar    1  UNL1        0.0159
      6 C          63.3026   90.8747   12.5336 C.ar    1  UNL1        0.0162
      7 C          64.2792   91.7577   11.8148 C.ar    1  UNL1        0.0543
      8 C          64.1917   91.9165   10.3258 C.ar    1  UNL1        0.0162
      9 C          63.1276   91.1923    9.5556 C.ar    1  UNL1        0.0159
     10 O          62.4313   87.3730    9.7270 O.2     1  UNL1       -0.2748
     11 C          61.2271   88.1169    9.2304 C.2     1  UNL1        0.2256
     12 N          61.0870   89.5850    9.5041 N.am    1  UNL1       -0.2839
     13 H          60.2967   90.0733    9.1783 H       1  UNL1        0.1549
     14 C          60.1630   87.3927    8.4602 C.3     1  UNL1        0.0768
     15 C          58.7858   87.3565    7.8670 C.3     1  UNL1        0.0096
     16 C          59.6973   86.1744    7.7194 C.3     1  UNL1        0.0096
     17 C          65.6943   93.8966   12.2306 C.3     1  UNL1        0.1253
     18 C          66.4787   94.1850   10.9850 C.ar    1  UNL1        0.0050
     19 C          67.4012   93.2326   10.2837 C.ar    1  UNL1        0.0049
     20 C          67.9710   93.9354    9.0873 C.ar    1  UNL1        0.0352
     21 S          67.4006   95.3222    9.0491 S.2     1  UNL1       -0.0862
     22 C          66.4783   95.4764   10.2220 C.ar    1  UNL1        0.0328
     23 C          65.7053   90.3769   14.0642 C.3     1  UNL1        0.2141
     24 N          64.6837   90.1016   15.1275 N.ar    1  UNL1       -0.2223
     25 N          63.9583   91.1320   15.9412 N.ar    1  UNL1       -0.0634
     26 N          63.0345   90.4147   16.8804 N.ar    1  UNL1       -0.1288
     27 C          63.1889   88.9410   16.6471 C.ar    1  UNL1        0.1217
     28 C          62.5331   87.7504   17.2813 C.ar    1  UNL1        0.0225
     29 C          62.8966   86.3662   16.8321 C.ar    1  UNL1        0.0017
     30 C          63.9159   86.1726   15.7487 C.ar    1  UNL1        0.0016
     31 C          64.5717   87.3633   15.1146 C.ar    1  UNL1        0.0204
     32 C          64.2082   88.7475   15.5638 C.ar    1  UNL1        0.0994
@<TRIPOS>BOND
     1    10    11    2
     2    11    12   am
     3    12     4    1
     4     4     5   ar
     5     5     6   ar
     6     6     7   ar
     7     7     1    1
     8     1    17    1
     9    17    18    1
    10    18    19   ar
    11    19    20   ar
    12    20    21   ar
    13    21    22   ar
    14     1     2   am
    15     2     3    2
    16     2    23    1
    17    23    24    1
    18    24    25   ar
    19    25    26   ar
    20    26    27   ar
    21    27    28   ar
    22    28    29   ar
    23    29    30   ar
    24    30    31   ar
    25    31    32   ar
    26     7     8   ar
    27     8     9   ar
    28    11    14    1
    29    14    15    1
    30    15    16    1
    31     9     4   ar
    32    16    14    1
    33    22    18   ar
    34    32    24   ar
    35    32    27   ar
    36    12    13    1
@<TRIPOS>MOLECULE
*****
 32 36 0 0 0
SMALL
GASTEIGER

@<TRIPOS>ATOM
      1 N          64.6316   90.7119   14.3473 N.am    1  UNL1       -0.2527
      2 C          65.9892   91.3484   14.3034 C.2     1  UNL1        0.2545
      3 O          66.7190   91.6472   15.5794 O.2     1  UNL1       -0.2723
      4 C          62.4421   89.8155   10.5195 C.ar    1  UNL1        0.0504
      5 C          62.7749   88.7047   11.4709 C.ar    1  UNL1        0.0159
      6 C          63.5047   89.0035   12.7469 C.ar    1  UNL1        0.0162
      7 C          63.9018   90.4131   13.0713 C.ar    1  UNL1        0.0543
      8 C          63.5690   91.5239   12.1199 C.ar    1  UNL1        0.0162
      9 C          62.8392   91.2251   10.8439 C.ar    1  UNL1        0.0159
     10 O          59.7421   88.5107   10.6060 O.2     1  UNL1       -0.2748
     11 C          60.3623   88.8643    9.2867 C.2     1  UNL1        0.2256
     12 N          61.7123   89.5167    9.2435 N.am    1  UNL1       -0.2839
     13 H          62.1193   89.7488    8.3777 H       1  UNL1        0.1549
     14 C          59.6324   88.5655    8.0108 C.3     1  UNL1        0.0768
     15 C          59.0537   89.0278    6.7064 C.3     1  UNL1        0.0096
     16 C          58.9471   87.5857    7.1051 C.3     1  UNL1        0.0096
     17 C          64.0040   90.3743   15.6671 C.3     1  UNL1        0.1253
     18 C          63.7413   88.9422   16.0281 C.ar    1  UNL1        0.0050
     19 C          64.2435   87.7395   15.2857 C.ar    1  UNL1        0.0049
     20 C          63.7429   86.5155   15.9937 C.ar    1  UNL1        0.0352
     21 S          62.9313   86.9617   17.1737 S.2     1  UNL1       -0.0862
     22 C          62.9304   88.4616   17.1949 C.ar    1  UNL1        0.0328
     23 C          66.6169   91.6861   12.9835 C.3     1  UNL1        0.2141
     24 N          66.5451   93.0883   12.4557 N.ar    1  UNL1       -0.2223
     25 N          66.0410   94.2870   13.2034 N.ar    1  UNL1       -0.0634
     26 N          66.1491   95.4775   12.2973 N.ar    1  UNL1       -0.1288
     27 C          66.7201   95.0146   10.9898 C.ar    1  UNL1        0.1217
     28 C          67.0489   95.7470    9.7227 C.ar    1  UNL1        0.0225
     29 C          67.6223   95.0026    8.5535 C.ar    1  UNL1        0.0017
     30 C          67.8670   93.5260    8.6514 C.ar    1  UNL1        0.0016
     31 C          67.5383   92.7937    9.9185 C.ar    1  UNL1        0.0204
     32 C          66.9649   93.5380   11.0877 C.ar    1  UNL1        0.0994
@<TRIPOS>BOND
     1    10    11    2
     2    11    12   am
     3    12     4    1
     4     4     5   ar
     5     5     6   ar
     6     6     7   ar
     7     7     1    1
     8     1    17    1
     9    17    18    1
    10    18    19   ar
    11    19    20   ar
    12    20    21   ar
    13    21    22   ar
    14     1     2   am
    15     2     3    2
    16     2    23    1
    17    23    24    1
    18    24    25   ar
    19    25    26   ar
    20    26    27   ar
    21    27    28   ar
    22    28    29   ar
    23    29    30   ar
    24    30    31   ar
    25    31    32   ar
    26     7     8   ar
    27     8     9   ar
    28    11    14    1
    29    14    15    1
    30    15    16    1
    31     9     4   ar
    32    16    14    1
    33    22    18   ar
    34    32    24   ar
    35    32    27   ar
    36    12    13    1
@<TRIPOS>MOLECULE
*****
 32 36 0 0 0
SMALL
GASTEIGER

@<TRIPOS>ATOM
      1 N          62.2854   87.9374   11.5388 N.am    1  UNL1       -0.2527
      2 C          62.3667   86.4482   11.6994 C.2     1  UNL1        0.2545
      3 O          61.4954   85.5554   10.8666 O.2     1  UNL1       -0.2723
      4 C          64.8993   90.6160   14.0372 C.ar    1  UNL1        0.0504
      5 C          64.2544   91.1473   12.7916 C.ar    1  UNL1        0.0159
      6 C          63.3831   90.2545   11.9587 C.ar    1  UNL1        0.0162
      7 C          63.1567   88.8303   12.3716 C.ar    1  UNL1        0.0543
      8 C          63.8016   88.2989   13.6173 C.ar    1  UNL1        0.0162
      9 C          64.6729   89.1918   14.4501 C.ar    1  UNL1        0.0159
     10 O          67.6155   91.4123   13.0434 O.2     1  UNL1       -0.2748
     11 C          67.1287   91.9070   14.3732 C.2     1  UNL1        0.2256
     12 N          65.7706   91.5088   14.8701 N.am    1  UNL1       -0.2839
     13 H          65.4511   91.8335   15.7428 H       1  UNL1        0.1549
     14 C          68.0000   92.7999   15.2060 C.3     1  UNL1        0.0768
     15 C          68.3165   94.1580   15.7586 C.3     1  UNL1        0.0096
     16 C          69.1928   92.9882   16.0959 C.3     1  UNL1        0.0096
     17 C          61.3327   88.5336   10.5453 C.3     1  UNL1        0.1253
     18 C          60.8041   87.6972    9.4180 C.ar    1  UNL1        0.0050
     19 C          61.6158   86.8054    8.5259 C.ar    1  UNL1        0.0049
     20 C          60.6843   86.1627    7.5414 C.ar    1  UNL1        0.0352
     21 S          59.2968   86.6572    7.8251 S.2     1  UNL1       -0.0862
     22 C          59.3709   87.6055    8.9849 C.ar    1  UNL1        0.0328
     23 C          63.3194   85.8519   12.6929 C.3     1  UNL1        0.2141
     24 N          62.8889   84.6932   13.5426 N.ar    1  UNL1       -0.2223
     25 N          62.4537   84.7649   14.9763 N.ar    1  UNL1       -0.0634
     26 N          62.1139   83.3754   15.4276 N.ar    1  UNL1       -0.1288
     27 C          62.3390   82.4449   14.2728 C.ar    1  UNL1        0.1217
     28 C          62.1697   80.9612   14.1316 C.ar    1  UNL1        0.0225
     29 C          62.4793   80.2920   12.8254 C.ar    1  UNL1        0.0017
     30 C          62.9583   81.1065   11.6604 C.ar    1  UNL1        0.0016
     31 C          63.1276   82.5902   11.8016 C.ar    1  UNL1        0.0204
     32 C          62.8180   83.2594   13.1078 C.ar    1  UNL1        0.0994
@<TRIPOS>BOND
     1    10    11    2
     2    11    12   am
     3    12     4    1
     4     4     5   ar
     5     5     6   ar
     6     6     7   ar
     7     7     1    1
     8     1    17    1
     9    17    18    1
    10    18    19   ar
    11    19    20   ar
    12    20    21   ar
    13    21    22   ar
    14     1     2   am
    15     2     3    2
    16     2    23    1
    17    23    24    1
    18    24    25   ar
    19    25    26   ar
    20    26    27   ar
    21    27    28   ar
    22    28    29   ar
    23    29    30   ar
    24    30    31   ar
    25    31    32   ar
    26     7     8   ar
    27     8     9   ar
    28    11    14    1
    29    14    15    1
    30    15    16    1
    31     9     4   ar
    32    16    14    1
    33    22    18   ar
    34    32    24   ar
    35    32    27   ar
    36    12    13    1
@<TRIPOS>MOLECULE
*****
 32 36 0 0 0
SMALL
GASTEIGER

@<TRIPOS>ATOM
      1 N          63.7744   83.8643   12.3227 N.am    1  UNL1       -0.2527
      2 C          64.4285   84.6077   13.4494 C.2     1  UNL1        0.2545
      3 O          65.1807   83.8559   14.5073 O.2     1  UNL1       -0.2723
      4 C          61.5181   86.1197    9.1491 C.ar    1  UNL1        0.0504
      5 C          61.1039   86.2314   10.5864 C.ar    1  UNL1        0.0159
      6 C          61.8560   85.4796   11.6443 C.ar    1  UNL1        0.0162
      7 C          63.0223   84.6161   11.2648 C.ar    1  UNL1        0.0543
      8 C          63.4366   84.5043    9.8275 C.ar    1  UNL1        0.0162
      9 C          62.6844   85.2562    8.7696 C.ar    1  UNL1        0.0159
     10 O          60.8026   89.0012    9.5787 O.2     1  UNL1       -0.2748
     11 C          60.4082   88.3123    8.3060 C.2     1  UNL1        0.2256
     12 N          60.7660   86.8715    8.0912 N.am    1  UNL1       -0.2839
     13 H          60.5072   86.4193    7.2559 H       1  UNL1        0.1549
     14 C          59.6561   89.0641    7.2481 C.3     1  UNL1        0.0768
     15 C          58.3686   89.3810    6.5468 C.3     1  UNL1        0.0096
     16 C          59.6410   90.0493    6.1171 C.3     1  UNL1        0.0096
     17 C          63.8725   82.3691   12.2539 C.3     1  UNL1        0.1253
     18 C          62.8264   81.5180   12.9107 C.ar    1  UNL1        0.0050
     19 C          62.6694   80.0347   12.7519 C.ar    1  UNL1        0.0049
     20 C          61.4997   79.6006   13.5846 C.ar    1  UNL1        0.0352
     21 S          60.9337   80.8157   14.2580 S.2     1  UNL1       -0.0862
     22 C          61.7538   82.0006   13.8414 C.ar    1  UNL1        0.0328
     23 C          64.3305   86.1030   13.5183 C.3     1  UNL1        0.2141
     24 N          63.8516   86.7661   14.7757 N.ar    1  UNL1       -0.2223
     25 N          63.2422   86.0755   15.9596 N.ar    1  UNL1       -0.0634
     26 N          62.9121   87.1188   16.9854 N.ar    1  UNL1       -0.1288
     27 C          63.3175   88.4542   16.4356 C.ar    1  UNL1        0.1217
     28 C          63.2329   89.8405   17.0020 C.ar    1  UNL1        0.0225
     29 C          63.7289   91.0088   16.2028 C.ar    1  UNL1        0.0017
     30 C          64.3096   90.7908   14.8370 C.ar    1  UNL1        0.0016
     31 C          64.3943   89.4045   14.2706 C.ar    1  UNL1        0.0204
     32 C          63.8982   88.2362   15.0698 C.ar    1  UNL1        0.0994
@<TRIPOS>BOND
     1    10    11    2
     2    11    12   am
     3    12     4    1
     4     4     5   ar
     5     5     6   ar
     6     6     7   ar
     7     7     1    1
     8     1    17    1
     9    17    18    1
    10    18    19   ar
    11    19    20   ar
    12    20    21   ar
    13    21    22   ar
    14     1     2   am
    15     2     3    2
    16     2    23    1
    17    23    24    1
    18    24    25   ar
    19    25    26   ar
    20    26    27   ar
    21    27    28   ar
    22    28    29   ar
    23    29    30   ar
    24    30    31   ar
    25    31    32   ar
    26     7     8   ar
    27     8     9   ar
    28    11    14    1
    29    14    15    1
    30    15    16    1
    31     9     4   ar
    32    16    14    1
    33    22    18   ar
    34    32    24   ar
    35    32    27   ar
    36    12    13    1
@<TRIPOS>MOLECULE
*****
 32 36 0 0 0
SMALL
GASTEIGER

@<TRIPOS>ATOM
      1 N          62.4972   86.7121   12.2804 N.am    1  UNL1       -0.2527
      2 C          63.4715   87.3058   13.2543 C.2     1  UNL1        0.2545
      3 O          64.0536   86.4564   14.3450 O.2     1  UNL1       -0.2723
      4 C          60.7509   89.2603    9.0083 C.ar    1  UNL1        0.0504
      5 C          60.7185   89.7387   10.4296 C.ar    1  UNL1        0.0159
      6 C          61.3006   88.8893   11.5203 C.ar    1  UNL1        0.0162
      7 C          61.9151   87.5615   11.1897 C.ar    1  UNL1        0.0543
      8 C          61.9476   87.0831    9.7685 C.ar    1  UNL1        0.0162
      9 C          61.3655   87.9325    8.6777 C.ar    1  UNL1        0.0159
     10 O          58.5943   88.1581    7.2381 O.2     1  UNL1       -0.2748
     11 C          59.0905   89.5586    7.0325 C.2     1  UNL1        0.2256
     12 N          60.1688   90.1097    7.9176 N.am    1  UNL1       -0.2839
     13 H          60.4945   91.0289    7.7827 H       1  UNL1        0.1549
     14 C          58.5084   90.4080    5.9418 C.3     1  UNL1        0.0768
     15 C          58.6925   91.3761    4.8109 C.3     1  UNL1        0.0096
     16 C          57.3159   90.9111    5.1835 C.3     1  UNL1        0.0096
     17 C          62.1052   85.2690   12.3974 C.3     1  UNL1        0.1253
     18 C          63.0350   84.1974   11.9105 C.ar    1  UNL1        0.0050
     19 C          63.4081   83.9365   10.4812 C.ar    1  UNL1        0.0049
     20 C          64.3587   82.7765   10.4547 C.ar    1  UNL1        0.0352
     21 S          64.5732   82.3204   11.8676 S.2     1  UNL1       -0.0862
     22 C          63.7550   83.1987   12.7672 C.ar    1  UNL1        0.0328
     23 C          63.8636   88.7490   13.1374 C.3     1  UNL1        0.2141
     24 N          63.8366   89.6339   14.3482 N.ar    1  UNL1       -0.2223
     25 N          62.7842   89.6338   15.4171 N.ar    1  UNL1       -0.0634
     26 N          63.1545   90.6742   16.4322 N.ar    1  UNL1       -0.1288
     27 C          64.4358   91.3173   15.9908 C.ar    1  UNL1        0.1217
     28 C          65.2730   92.4052   16.5952 C.ar    1  UNL1        0.0225
     29 C          66.5319   92.8502   15.9117 C.ar    1  UNL1        0.0017
     30 C          66.9535   92.2072   14.6237 C.ar    1  UNL1        0.0016
     31 C          66.1162   91.1193   14.0193 C.ar    1  UNL1        0.0204
     32 C          64.8574   90.6743   14.7028 C.ar    1  UNL1        0.0994
@<TRIPOS>BOND
     1    10    11    2
     2    11    12   am
     3    12     4    1
     4     4     5   ar
     5     5     6   ar
     6     6     7   ar
     7     7     1    1
     8     1    17    1
     9    17    18    1
    10    18    19   ar
    11    19    20   ar
    12    20    21   ar
    13    21    22   ar
    14     1     2   am
    15     2     3    2
    16     2    23    1
    17    23    24    1
    18    24    25   ar
    19    25    26   ar
    20    26    27   ar
    21    27    28   ar
    22    28    29   ar
    23    29    30   ar
    24    30    31   ar
    25    31    32   ar
    26     7     8   ar
    27     8     9   ar
    28    11    14    1
    29    14    15    1
    30    15    16    1
    31     9     4   ar
    32    16    14    1
    33    22    18   ar
    34    32    24   ar
    35    32    27   ar
    36    12    13    1
@<TRIPOS>MOLECULE
*****
 32 36 0 0 0
SMALL
GASTEIGER

@<TRIPOS>ATOM
      1 N          63.8820   89.9272   13.5998 N.am    1  UNL1       -0.2527
      2 C          63.6912   90.6049   12.2753 C.2     1  UNL1        0.2545
      3 O          63.7318   92.1017   12.1859 O.2     1  UNL1       -0.2723
      4 C          63.7604   85.4369   13.8679 C.ar    1  UNL1        0.0504
      5 C          63.1125   86.1369   12.7103 C.ar    1  UNL1        0.0159
      6 C          63.1530   87.6337   12.6209 C.ar    1  UNL1        0.0162
      7 C          63.8415   88.4305   13.6892 C.ar    1  UNL1        0.0543
      8 C          64.4894   87.7304   14.8468 C.ar    1  UNL1        0.0162
      9 C          64.4489   86.2337   14.9362 C.ar    1  UNL1        0.0159
     10 O          62.3794   83.8436   11.7339 O.2     1  UNL1       -0.2748
     11 C          63.0294   83.1435   12.8903 C.2     1  UNL1        0.2256
     12 N          63.7199   83.9401   13.9573 N.am    1  UNL1       -0.2839
     13 H          64.1465   83.4806   14.7163 H       1  UNL1        0.1549
     14 C          62.9889   81.6467   12.9796 C.3     1  UNL1        0.0768
     15 C          63.1605   80.3878   13.7770 C.3     1  UNL1        0.0096
     16 C          62.7470   80.3130   12.3370 C.3     1  UNL1        0.0096
     17 C          64.1134   90.7464   14.8349 C.3     1  UNL1        0.1253
     18 C          65.4271   91.4410   15.0389 C.ar    1  UNL1        0.0050
     19 C          66.6502   91.2822   14.1852 C.ar    1  UNL1        0.0049
     20 C          67.7275   92.1594   14.7511 C.ar    1  UNL1        0.0352
     21 S          67.1701   92.8603   15.9545 S.2     1  UNL1       -0.0862
     22 C          65.7484   92.4162   16.1323 C.ar    1  UNL1        0.0328
     23 C          63.4599   89.7858   11.0401 C.3     1  UNL1        0.2141
     24 N          62.0714   89.6257   10.4955 N.ar    1  UNL1       -0.2223
     25 N          60.9507   90.6130   10.6339 N.ar    1  UNL1       -0.0634
     26 N          59.7466   90.0476    9.9409 N.ar    1  UNL1       -0.1288
     27 C          60.1230   88.7107    9.3742 C.ar    1  UNL1        0.1217
     28 C          59.3431   87.6972    8.5904 C.ar    1  UNL1        0.0225
     29 C          60.0001   86.4229    8.1493 C.ar    1  UNL1        0.0017
     30 C          61.4369   86.1621    8.4921 C.ar    1  UNL1        0.0016
     31 C          62.2168   87.1757    9.2760 C.ar    1  UNL1        0.0204
     32 C          61.5599   88.4500    9.7170 C.ar    1  UNL1        0.0994
@<TRIPOS>BOND
     1    10    11    2
     2    11    12   am
     3    12     4    1
     4     4     5   ar
     5     5     6   ar
     6     6     7   ar
     7     7     1    1
     8     1    17    1
     9    17    18    1
    10    18    19   ar
    11    19    20   ar
    12    20    21   ar
    13    21    22   ar
    14     1     2   am
    15     2     3    2
    16     2    23    1
    17    23    24    1
    18    24    25   ar
    19    25    26   ar
    20    26    27   ar
    21    27    28   ar
    22    28    29   ar
    23    29    30   ar
    24    30    31   ar
    25    31    32   ar
    26     7     8   ar
    27     8     9   ar
    28    11    14    1
    29    14    15    1
    30    15    16    1
    31     9     4   ar
    32    16    14    1
    33    22    18   ar
    34    32    24   ar
    35    32    27   ar
    36    12    13    1
@<TRIPOS>MOLECULE
*****
 32 36 0 0 0
SMALL
GASTEIGER

@<TRIPOS>ATOM
      1 N          62.3902   87.7778   11.5366 N.am    1  UNL1       -0.2527
      2 C          62.5074   86.2846   11.6173 C.2     1  UNL1        0.2545
      3 O          61.6480   85.4166   10.7467 O.2     1  UNL1       -0.2723
      4 C          64.9684   90.3816   14.1486 C.ar    1  UNL1        0.0504
      5 C          64.3740   90.9379   12.8888 C.ar    1  UNL1        0.0159
      6 C          63.5145   90.0699   12.0181 C.ar    1  UNL1        0.0162
      7 C          63.2496   88.6457   12.4073 C.ar    1  UNL1        0.0543
      8 C          63.8440   88.0895   13.6671 C.ar    1  UNL1        0.0162
      9 C          64.7034   88.9574   14.5378 C.ar    1  UNL1        0.0159
     10 O          67.5376   91.5023   13.0796 O.2     1  UNL1       -0.2748
     11 C          67.1124   91.8099   14.4848 C.2     1  UNL1        0.2256
     12 N          65.8278   91.2496   15.0192 N.am    1  UNL1       -0.2839
     13 H          65.5487   91.4515   15.9415 H       1  UNL1        0.1549
     14 C          67.9719   92.6779   15.3555 C.3     1  UNL1        0.0768
     15 C          68.3613   94.0384   15.8527 C.3     1  UNL1        0.0096
     16 C          69.0709   92.8207   16.3662 C.3     1  UNL1        0.0096
     17 C          61.4135   88.4030   10.5852 C.3     1  UNL1        0.1253
     18 C          60.2776   89.2292   11.1118 C.ar    1  UNL1        0.0050
     19 C          59.9915   90.6594   10.7620 C.ar    1  UNL1        0.0049
     20 C          58.7655   91.0844   11.5146 C.ar    1  UNL1        0.0352
     21 S          58.2940   89.9167   12.3297 S.2     1  UNL1       -0.0862
     22 C          59.2286   88.7702   12.0807 C.ar    1  UNL1        0.0328
     23 C          63.4841   85.6592   12.5688 C.3     1  UNL1        0.2141
     24 N          63.0379   84.5603   13.4871 N.ar    1  UNL1       -0.2223
     25 N          62.6818   84.7124   14.9362 N.ar    1  UNL1       -0.0634
     26 N          62.2933   83.3624   15.4621 N.ar    1  UNL1       -0.1288
     27 C          62.4093   82.3760   14.3380 C.ar    1  UNL1        0.1217
     28 C          62.1554   80.8993   14.2683 C.ar    1  UNL1        0.0225
     29 C          62.3617   80.1630   12.9779 C.ar    1  UNL1        0.0017
     30 C          62.8220   80.9034   11.7572 C.ar    1  UNL1        0.0016
     31 C          63.0759   82.3800   11.8269 C.ar    1  UNL1        0.0204
     32 C          62.8696   83.1163   13.1174 C.ar    1  UNL1        0.0994
@<TRIPOS>BOND
     1    10    11    2
     2    11    12   am
     3    12     4    1
     4     4     5   ar
     5     5     6   ar
     6     6     7   ar
     7     7     1    1
     8     1    17    1
     9    17    18    1
    10    18    19   ar
    11    19    20   ar
    12    20    21   ar
    13    21    22   ar
    14     1     2   am
    15     2     3    2
    16     2    23    1
    17    23    24    1
    18    24    25   ar
    19    25    26   ar
    20    26    27   ar
    21    27    28   ar
    22    28    29   ar
    23    29    30   ar
    24    30    31   ar
    25    31    32   ar
    26     7     8   ar
    27     8     9   ar
    28    11    14    1
    29    14    15    1
    30    15    16    1
    31     9     4   ar
    32    16    14    1
    33    22    18   ar
    34    32    24   ar
    35    32    27   ar
    36    12    13    1
@<TRIPOS>MOLECULE
*****
 32 36 0 0 0
SMALL
GASTEIGER

@<TRIPOS>ATOM
      1 N          61.6243   87.9177   11.4273 N.am    1  UNL1       -0.2527
      2 C          61.8679   86.4787   11.0808 C.2     1  UNL1        0.2545
      3 O          60.8632   85.7241   10.2617 O.2     1  UNL1       -0.2723
      4 C          64.6385   90.1817   13.8846 C.ar    1  UNL1        0.0504
      5 C          63.8483   90.8922   12.8259 C.ar    1  UNL1        0.0159
      6 C          62.8436   90.1375   12.0068 C.ar    1  UNL1        0.0162
      7 C          62.6291   88.6724   12.2464 C.ar    1  UNL1        0.0543
      8 C          63.4193   87.9619   13.3050 C.ar    1  UNL1        0.0162
      9 C          64.4240   88.7166   14.1241 C.ar    1  UNL1        0.0159
     10 O          66.6481   91.9533   12.5344 O.2     1  UNL1       -0.2748
     11 C          66.6481   91.8222   14.0286 C.2     1  UNL1        0.2256
     12 N          65.6433   90.9364   14.7037 N.am    1  UNL1       -0.2839
     13 H          65.6432   90.8504   15.6844 H       1  UNL1        0.1549
     14 C          67.6528   92.5769   14.8477 C.3     1  UNL1        0.0768
     15 C          67.9871   93.7082   15.7741 C.3     1  UNL1        0.0096
     16 C          69.0588   92.7526   15.3401 C.3     1  UNL1        0.0096
     17 C          60.3760   88.6019   10.9546 C.3     1  UNL1        0.1253
     18 C          59.9913   88.5434    9.5059 C.ar    1  UNL1        0.0050
     19 C          60.2610   89.6027    8.4787 C.ar    1  UNL1        0.0049
     20 C          59.7059   89.1293    7.1680 C.ar    1  UNL1        0.0352
     21 S          59.0931   87.7775    7.3853 S.2     1  UNL1       -0.0862
     22 C          59.2696   87.4155    8.8302 C.ar    1  UNL1        0.0328
     23 C          63.1163   85.7944   11.5535 C.3     1  UNL1        0.2141
     24 N          63.2833   84.3172   11.3538 N.ar    1  UNL1       -0.2223
     25 N          63.8628   83.6513   10.1411 N.ar    1  UNL1       -0.0634
     26 N          63.8378   82.1691   10.3697 N.ar    1  UNL1       -0.1288
     27 C          63.2428   81.9188   11.7237 C.ar    1  UNL1        0.1217
     28 C          62.9688   80.6536   12.4813 C.ar    1  UNL1        0.0225
     29 C          62.3521   80.7160   13.8472 C.ar    1  UNL1        0.0017
     30 C          62.0094   82.0436   14.4555 C.ar    1  UNL1        0.0016
     31 C          62.2834   83.3088   13.6979 C.ar    1  UNL1        0.0204
     32 C          62.9001   83.2464   12.3320 C.ar    1  UNL1        0.0994
@<TRIPOS>BOND
     1    10    11    2
     2    11    12   am
     3    12     4    1
     4     4     5   ar
     5     5     6   ar
     6     6     7   ar
     7     7     1    1
     8     1    17    1
     9    17    18    1
    10    18    19   ar
    11    19    20   ar
    12    20    21   ar
    13    21    22   ar
    14     1     2   am
    15     2     3    2
    16     2    23    1
    17    23    24    1
    18    24    25   ar
    19    25    26   ar
    20    26    27   ar
    21    27    28   ar
    22    28    29   ar
    23    29    30   ar
    24    30    31   ar
    25    31    32   ar
    26     7     8   ar
    27     8     9   ar
    28    11    14    1
    29    14    15    1
    30    15    16    1
    31     9     4   ar
    32    16    14    1
    33    22    18   ar
    34    32    24   ar
    35    32    27   ar
    36    12    13    1
@<TRIPOS>MOLECULE
*****
 32 36 0 0 0
SMALL
GASTEIGER

@<TRIPOS>ATOM
      1 N          61.6667   88.4782   11.4721 N.am    1  UNL1       -0.2527
      2 C          61.9541   87.0060   11.4659 C.2     1  UNL1        0.2545
      3 O          60.9395   86.0461   10.9187 O.2     1  UNL1       -0.2723
      4 C          64.7104   91.3578   13.1135 C.ar    1  UNL1        0.0504
      5 C          64.2449   91.4872   11.6935 C.ar    1  UNL1        0.0159
      6 C          63.2303   90.5274   11.1464 C.ar    1  UNL1        0.0162
      7 C          62.6813   89.4381   12.0193 C.ar    1  UNL1        0.0543
      8 C          63.1468   89.3086   13.4393 C.ar    1  UNL1        0.0162
      9 C          64.1613   90.2684   13.9864 C.ar    1  UNL1        0.0159
     10 O          66.9357   90.3554   14.8579 O.2     1  UNL1       -0.2748
     11 C          66.8376   91.8165   14.5329 C.2     1  UNL1        0.2256
     12 N          65.7249   92.3176   13.6607 N.am    1  UNL1       -0.2839
     13 H          65.6605   93.2765   13.4473 H       1  UNL1        0.1549
     14 C          67.8521   92.7763   15.0800 C.3     1  UNL1        0.0768
     15 C          69.2820   93.1432   15.3463 C.3     1  UNL1        0.0096
     16 C          68.1796   94.0719   15.7613 C.3     1  UNL1        0.0096
     17 C          60.3649   88.9905   10.9312 C.3     1  UNL1        0.1253
     18 C          59.9825   88.7117    9.5078 C.ar    1  UNL1        0.0050
     19 C          60.1239   89.6608    8.3549 C.ar    1  UNL1        0.0049
     20 C          59.6205   88.9706    7.1219 C.ar    1  UNL1        0.0352
     21 S          59.1680   87.5949    7.5128 S.2     1  UNL1       -0.0862
     22 C          59.3918   87.4350    8.9873 C.ar    1  UNL1        0.0328
     23 C          63.2560   86.4936   12.0068 C.3     1  UNL1        0.2141
     24 N          63.2645   85.3775   13.0090 N.ar    1  UNL1       -0.2223
     25 N          63.3646   85.5302   14.4978 N.ar    1  UNL1       -0.0634
     26 N          63.3364   84.1598   15.1071 N.ar    1  UNL1       -0.1288
     27 C          63.2189   83.1602   13.9949 C.ar    1  UNL1        0.1217
     28 C          63.1466   81.6620   13.9954 C.ar    1  UNL1        0.0225
     29 C          63.0299   80.9164   12.6992 C.ar    1  UNL1        0.0017
     30 C          62.9855   81.6690   11.4024 C.ar    1  UNL1        0.0016
     31 C          63.0578   83.1672   11.4019 C.ar    1  UNL1        0.0204
     32 C          63.1745   83.9128   12.6981 C.ar    1  UNL1        0.0994
@<TRIPOS>BOND
     1    10    11    2
     2    11    12   am
     3    12     4    1
     4     4     5   ar
     5     5     6   ar
     6     6     7   ar
     7     7     1    1
     8     1    17    1
     9    17    18    1
    10    18    19   ar
    11    19    20   ar
    12    20    21   ar
    13    21    22   ar
    14     1     2   am
    15     2     3    2
    16     2    23    1
    17    23    24    1
    18    24    25   ar
    19    25    26   ar
    20    26    27   ar
    21    27    28   ar
    22    28    29   ar
    23    29    30   ar
    24    30    31   ar
    25    31    32   ar
    26     7     8   ar
    27     8     9   ar
    28    11    14    1
    29    14    15    1
    30    15    16    1
    31     9     4   ar
    32    16    14    1
    33    22    18   ar
    34    32    24   ar
    35    32    27   ar
    36    12    13    1
