@<TRIPOS>MOLECULE
*****
 32 35 0 0 0
SMALL
GASTEIGER

@<TRIPOS>ATOM
      1 N          63.6244   86.7861   13.3719 N.ar    1  UNL1       -0.2357
      2 N          64.2065   87.6426   14.4571 N.ar    1  UNL1       -0.1663
      3 C          64.0890   89.0757   14.0298 C.ar    1  UNL1        0.1279
      4 C          63.4343   89.1048   12.6804 C.ar    1  UNL1        0.1099
      5 C          63.0625   90.2370   11.7695 C.ar    1  UNL1        0.2355
      6 N          62.4036   89.9542   10.4520 N.ar    1  UNL1       -0.1889
      7 C          62.1165   88.5392   10.0455 C.ar    1  UNL1        0.2029
      8 N          62.4883   87.4070   10.9564 N.ar    1  UNL1       -0.2049
      9 C          63.1472   87.6898   12.2739 C.ar    1  UNL1        0.1671
     10 C          63.2677   80.7969   13.4156 C.2     1  UNL1        0.2256
     11 O          64.0332   80.0073   14.4357 O.2     1  UNL1       -0.2749
     12 N          63.3569   82.2942   13.4047 N.am    1  UNL1       -0.2794
     13 C          62.5913   83.0837   12.3846 C.3     1  UNL1        0.0954
     14 C          62.6805   84.5810   12.3737 C.3     1  UNL1        0.0459
     15 C          63.5352   85.2888   13.3828 C.3     1  UNL1        0.1102
     16 C          64.3008   84.4993   14.4029 C.3     1  UNL1        0.0459
     17 C          64.2116   83.0020   14.4138 C.3     1  UNL1        0.0954
     18 C          62.4129   80.0891   12.4064 C.3     1  UNL1        0.0853
     19 C          62.7997   78.5920   10.3185 C.3     1  UNL1        0.0005
     20 C          62.8966   79.9269   10.9958 C.3     1  UNL1        0.0091
     21 C          63.4771   81.0996   10.2625 C.3     1  UNL1        0.0005
     22 O          63.3497   91.6520   12.1761 O.3     1  UNL1       -0.4359
     23 C          64.5961   91.9727   12.9466 C.ar    1  UNL1        0.1473
     24 C          65.8603   92.3191   12.2174 C.ar    1  UNL1        0.0389
     25 C          67.1067   92.6398   12.9879 C.ar    1  UNL1        0.0215
     26 C          67.0889   92.6141   14.4875 C.ar    1  UNL1        0.1059
     27 C          65.8246   92.2678   15.2168 C.ar    1  UNL1        0.0215
     28 C          64.5782   91.9471   14.4463 C.ar    1  UNL1        0.0389
     29 S          68.3353   92.9348   15.2580 S.O2    1  UNL1        0.0105
     30 C          69.5817   93.2555   16.0285 C.3     1  UNL1        0.1816
     31 O          69.1692   92.5091   14.0861 O.2     1  UNL1       -0.1686
     32 O          67.5013   93.3605   16.4299 O.2     1  UNL1       -0.1686
@<TRIPOS>BOND
     1    19    20    1
     2    20    21    1
     3    20    18    1
     4    18    10    1
     5    10    11    2
     6    10    12   am
     7    12    13    1
     8    13    14    1
     9    14    15    1
    10    15     1    1
    11     1     2   ar
    12     2     3   ar
    13     3     4   ar
    14     4     5   ar
    15     5    22    1
    16    22    23    1
    17    23    24   ar
    18    24    25   ar
    19    25    26   ar
    20    26    29    1
    21    29    30    1
    22    29    31    2
    23    29    32    2
    24    26    27   ar
    25    27    28   ar
    26     5     6   ar
    27     6     7   ar
    28     7     8   ar
    29     8     9   ar
    30    15    16    1
    31    16    17    1
    32    17    12    1
    33     9     1   ar
    34     9     4   ar
    35    28    23   ar
@<TRIPOS>MOLECULE
*****
 32 35 0 0 0
SMALL
GASTEIGER

@<TRIPOS>ATOM
      1 N          63.9411   86.6492   13.9185 N.ar    1  UNL1       -0.2357
      2 N          64.7026   87.3340   15.0144 N.ar    1  UNL1       -0.1663
      3 C          64.6902   88.8079   14.7365 C.ar    1  UNL1        0.1279
      4 C          63.9210   89.0341   13.4686 C.ar    1  UNL1        0.1099
      5 C          63.5824   90.2825   12.7092 C.ar    1  UNL1        0.2355
      6 N          62.7808   90.1968   11.4443 N.ar    1  UNL1       -0.1889
      7 C          62.3178   88.8626   10.9388 C.ar    1  UNL1        0.2029
      8 N          62.6564   87.6142   11.6982 N.ar    1  UNL1       -0.2049
      9 C          63.4580   87.6999   12.9631 C.ar    1  UNL1        0.1671
     10 C          62.9935   80.7438   13.4399 C.2     1  UNL1        0.2256
     11 O          63.5379   79.8101   14.4800 O.2     1  UNL1       -0.2749
     12 N          63.2304   82.2201   13.5596 N.am    1  UNL1       -0.2794
     13 C          62.6859   83.1538   12.5195 C.3     1  UNL1        0.0954
     14 C          62.9228   84.6302   12.6391 C.3     1  UNL1        0.0459
     15 C          63.7042   85.1729   13.7988 C.3     1  UNL1        0.1102
     16 C          64.2486   84.2392   14.8389 C.3     1  UNL1        0.0459
     17 C          64.0117   82.7628   14.7193 C.3     1  UNL1        0.0954
     18 C          62.2121   80.2012   12.2802 C.3     1  UNL1        0.0853
     19 C          63.5699   81.2675   10.3386 C.3     1  UNL1        0.0005
     20 C          62.8551   80.0886   10.9297 C.3     1  UNL1        0.0091
     21 C          62.7833   78.7971   10.1701 C.3     1  UNL1        0.0005
     22 O          64.0454   91.6167   13.2148 O.3     1  UNL1       -0.4359
     23 C          64.7996   92.5423   12.3067 C.ar    1  UNL1        0.1473
     24 C          64.5912   92.4718   10.8230 C.ar    1  UNL1        0.0389
     25 C          65.3453   93.3974    9.9149 C.ar    1  UNL1        0.0215
     26 C          66.3078   94.3934   10.4906 C.ar    1  UNL1        0.1059
     27 C          66.5162   94.4640   11.9744 C.ar    1  UNL1        0.0215
     28 C          65.7621   93.5384   12.8825 C.ar    1  UNL1        0.0389
     29 S          67.0620   95.3190    9.5825 S.O2    1  UNL1        0.0105
     30 C          67.8161   96.2446    8.6744 C.3     1  UNL1        0.1816
     31 O          68.2116   94.3558    9.5555 O.2     1  UNL1       -0.1686
     32 O          65.9124   96.2822    9.6095 O.2     1  UNL1       -0.1686
@<TRIPOS>BOND
     1    19    20    1
     2    20    21    1
     3    20    18    1
     4    18    10    1
     5    10    11    2
     6    10    12   am
     7    12    13    1
     8    13    14    1
     9    14    15    1
    10    15     1    1
    11     1     2   ar
    12     2     3   ar
    13     3     4   ar
    14     4     5   ar
    15     5    22    1
    16    22    23    1
    17    23    24   ar
    18    24    25   ar
    19    25    26   ar
    20    26    29    1
    21    29    30    1
    22    29    31    2
    23    29    32    2
    24    26    27   ar
    25    27    28   ar
    26     5     6   ar
    27     6     7   ar
    28     7     8   ar
    29     8     9   ar
    30    15    16    1
    31    16    17    1
    32    17    12    1
    33     9     1   ar
    34     9     4   ar
    35    28    23   ar
@<TRIPOS>MOLECULE
*****
 32 35 0 0 0
SMALL
GASTEIGER

@<TRIPOS>ATOM
      1 N          63.4301   86.6621   13.4148 N.ar    1  UNL1       -0.2357
      2 N          63.5461   87.5296   12.1966 N.ar    1  UNL1       -0.1663
      3 C          63.5796   88.9598   12.6475 C.ar    1  UNL1        0.1279
      4 C          63.4843   88.9762   14.1444 C.ar    1  UNL1        0.1099
      5 C          63.4697   90.1008   15.1369 C.ar    1  UNL1        0.2355
      6 N          63.3628   89.8054   16.6036 N.ar    1  UNL1       -0.1889
      7 C          63.2704   88.3854   17.0778 C.ar    1  UNL1        0.2029
      8 N          63.2849   87.2608   16.0853 N.ar    1  UNL1       -0.2049
      9 C          63.3919   87.5562   14.6186 C.ar    1  UNL1        0.1671
     10 C          63.1654   80.6681   13.4640 C.2     1  UNL1        0.2256
     11 O          63.9320   79.8919   14.4935 O.2     1  UNL1       -0.2749
     12 N          63.2316   82.1666   13.4517 N.am    1  UNL1       -0.2794
     13 C          62.4650   82.9428   12.4223 C.3     1  UNL1        0.0954
     14 C          62.5312   84.4413   12.4100 C.3     1  UNL1        0.0459
     15 C          63.3639   85.1637   13.4271 C.3     1  UNL1        0.1102
     16 C          64.1305   84.3875   14.4566 C.3     1  UNL1        0.0459
     17 C          64.0644   82.8890   14.4689 C.3     1  UNL1        0.0954
     18 C          62.3326   79.9459   12.4468 C.3     1  UNL1        0.0853
     19 C          63.3885   80.9653   10.3029 C.3     1  UNL1        0.0005
     20 C          62.8369   79.7832   11.0435 C.3     1  UNL1        0.0091
     21 C          62.7896   78.4384   10.3807 C.3     1  UNL1        0.0005
     22 O          63.5621   91.5209   14.6627 O.3     1  UNL1       -0.4359
     23 C          64.5159   91.8839   13.5634 C.ar    1  UNL1        0.1473
     24 C          64.0379   91.9367   12.1426 C.ar    1  UNL1        0.0389
     25 C          64.9917   92.2997   11.0433 C.ar    1  UNL1        0.0215
     26 C          66.4236   92.6099   11.3648 C.ar    1  UNL1        0.1059
     27 C          66.9017   92.5572   12.7856 C.ar    1  UNL1        0.0215
     28 C          65.9479   92.1942   13.8849 C.ar    1  UNL1        0.0389
     29 S          67.3774   92.9729   10.2655 S.O2    1  UNL1        0.0105
     30 C          68.3312   93.3359    9.1662 C.3     1  UNL1        0.1816
     31 O          68.4113   92.0650   10.8627 O.2     1  UNL1       -0.1686
     32 O          66.3435   93.8809    9.6682 O.2     1  UNL1       -0.1686
@<TRIPOS>BOND
     1    19    20    1
     2    20    21    1
     3    20    18    1
     4    18    10    1
     5    10    11    2
     6    10    12   am
     7    12    13    1
     8    13    14    1
     9    14    15    1
    10    15     1    1
    11     1     2   ar
    12     2     3   ar
    13     3     4   ar
    14     4     5   ar
    15     5    22    1
    16    22    23    1
    17    23    24   ar
    18    24    25   ar
    19    25    26   ar
    20    26    29    1
    21    29    30    1
    22    29    31    2
    23    29    32    2
    24    26    27   ar
    25    27    28   ar
    26     5     6   ar
    27     6     7   ar
    28     7     8   ar
    29     8     9   ar
    30    15    16    1
    31    16    17    1
    32    17    12    1
    33     9     1   ar
    34     9     4   ar
    35    28    23   ar
@<TRIPOS>MOLECULE
*****
 32 35 0 0 0
SMALL
GASTEIGER

@<TRIPOS>ATOM
      1 N          63.6639   86.1702   13.9385 N.ar    1  UNL1       -0.2357
      2 N          64.4897   86.7204   15.0634 N.ar    1  UNL1       -0.1663
      3 C          64.6404   88.1973   14.8485 C.ar    1  UNL1        0.1279
      4 C          63.9079   88.5597   13.5906 C.ar    1  UNL1        0.1099
      5 C          63.7124   89.8688   12.8848 C.ar    1  UNL1        0.2355
      6 N          62.9135   89.9250   11.6165 N.ar    1  UNL1       -0.1889
      7 C          62.3100   88.6722   11.0541 C.ar    1  UNL1        0.2029
      8 N          62.5054   87.3632   11.7600 N.ar    1  UNL1       -0.2049
      9 C          63.3044   87.3070   13.0283 C.ar    1  UNL1        0.1671
     10 C          62.0778   80.4300   13.2077 C.2     1  UNL1        0.2256
     11 O          62.4890   79.6900   11.9694 O.2     1  UNL1       -0.2749
     12 N          62.4743   81.8650   13.3903 N.am    1  UNL1       -0.2794
     13 C          62.0631   82.6050   14.6286 C.3     1  UNL1        0.0954
     14 C          62.4596   84.0400   14.8113 C.3     1  UNL1        0.0459
     15 C          63.2674   84.7352   13.7558 C.3     1  UNL1        0.1102
     16 C          63.6786   83.9952   12.5175 C.3     1  UNL1        0.0459
     17 C          63.2821   82.5602   12.3348 C.3     1  UNL1        0.0954
     18 C          61.2700   79.7349   14.2633 C.3     1  UNL1        0.0853
     19 C          58.9688   78.5567   14.5220 C.3     1  UNL1        0.0005
     20 C          59.7716   79.7865   14.2164 C.3     1  UNL1        0.0091
     21 C          59.0759   81.0678   13.8638 C.3     1  UNL1        0.0005
     22 O          64.3159   91.1216   13.4472 O.3     1  UNL1       -0.4359
     23 C          64.9721   92.1137   12.5334 C.ar    1  UNL1        0.1473
     24 C          65.8548   93.1859   13.1001 C.ar    1  UNL1        0.0389
     25 C          66.5109   94.1780   12.1863 C.ar    1  UNL1        0.0215
     26 C          66.2844   94.0980   10.7057 C.ar    1  UNL1        0.1059
     27 C          65.4016   93.0258   10.1388 C.ar    1  UNL1        0.0215
     28 C          64.7455   92.0337   11.0527 C.ar    1  UNL1        0.0389
     29 S          66.9405   95.0902    9.7918 S.O2    1  UNL1        0.0105
     30 C          67.5967   96.0823    8.8780 C.3     1  UNL1        0.1816
     31 O          67.3271   93.9782    8.8622 O.2     1  UNL1       -0.1686
     32 O          66.5540   96.2021   10.7215 O.2     1  UNL1       -0.1686
@<TRIPOS>BOND
     1    19    20    1
     2    20    21    1
     3    20    18    1
     4    18    10    1
     5    10    11    2
     6    10    12   am
     7    12    13    1
     8    13    14    1
     9    14    15    1
    10    15     1    1
    11     1     2   ar
    12     2     3   ar
    13     3     4   ar
    14     4     5   ar
    15     5    22    1
    16    22    23    1
    17    23    24   ar
    18    24    25   ar
    19    25    26   ar
    20    26    29    1
    21    29    30    1
    22    29    31    2
    23    29    32    2
    24    26    27   ar
    25    27    28   ar
    26     5     6   ar
    27     6     7   ar
    28     7     8   ar
    29     8     9   ar
    30    15    16    1
    31    16    17    1
    32    17    12    1
    33     9     1   ar
    34     9     4   ar
    35    28    23   ar
@<TRIPOS>MOLECULE
*****
 32 35 0 0 0
SMALL
GASTEIGER

@<TRIPOS>ATOM
      1 N          61.3241   87.5343   10.4804 N.ar    1  UNL1       -0.2357
      2 N          61.1228   88.9765   10.8405 N.ar    1  UNL1       -0.1663
      3 C          60.3121   89.6169    9.7530 C.ar    1  UNL1        0.1279
      4 C          60.0122   88.5704    8.7210 C.ar    1  UNL1        0.1099
      5 C          59.2504   88.6233    7.4299 C.ar    1  UNL1        0.2355
      6 N          59.1141   87.3891    6.5884 N.ar    1  UNL1       -0.1889
      7 C          59.7396   86.1020    7.0380 C.ar    1  UNL1        0.2029
      8 N          60.5014   86.0491    8.3290 N.ar    1  UNL1       -0.2049
      9 C          60.6377   87.2833    9.1705 C.ar    1  UNL1        0.1671
     10 C          64.3445   83.4808   13.7126 C.2     1  UNL1        0.2256
     11 O          65.1601   83.9193   14.8927 O.2     1  UNL1       -0.2749
     12 N          63.5894   84.4942   12.9046 N.am    1  UNL1       -0.2794
     13 C          62.7738   84.0557   11.7246 C.3     1  UNL1        0.0954
     14 C          62.0188   85.0690   10.9165 C.3     1  UNL1        0.0459
     15 C          62.0792   86.5209   11.2885 C.3     1  UNL1        0.1102
     16 C          62.8948   86.9594   12.4685 C.3     1  UNL1        0.0459
     17 C          63.6499   85.9460   13.2766 C.3     1  UNL1        0.0954
     18 C          64.2840   82.0290   13.3406 C.3     1  UNL1        0.0853
     19 C          62.6957   80.1871   12.4267 C.3     1  UNL1        0.0005
     20 C          62.9781   81.2934   13.3996 C.3     1  UNL1        0.0091
     21 C          61.9544   81.6642   14.4314 C.3     1  UNL1        0.0005
     22 O          58.6249   89.9105    6.9803 O.3     1  UNL1       -0.4359
     23 C          59.2246   90.6773    5.8391 C.ar    1  UNL1        0.1473
     24 C          58.3615   91.5751    5.0031 C.ar    1  UNL1        0.0389
     25 C          58.9612   92.3419    3.8619 C.ar    1  UNL1        0.0215
     26 C          60.4239   92.2109    3.5566 C.ar    1  UNL1        0.1059
     27 C          61.2871   91.3130    4.3926 C.ar    1  UNL1        0.0215
     28 C          60.6874   90.5462    5.5339 C.ar    1  UNL1        0.0389
     29 S          61.0235   92.9777    2.4154 S.O2    1  UNL1        0.0105
     30 C          61.6232   93.7445    1.2741 C.3     1  UNL1        0.1816
     31 O          62.2526   92.1206    2.4853 O.2     1  UNL1       -0.1686
     32 O          59.7945   93.8348    2.3455 O.2     1  UNL1       -0.1686
@<TRIPOS>BOND
     1    19    20    1
     2    20    21    1
     3    20    18    1
     4    18    10    1
     5    10    11    2
     6    10    12   am
     7    12    13    1
     8    13    14    1
     9    14    15    1
    10    15     1    1
    11     1     2   ar
    12     2     3   ar
    13     3     4   ar
    14     4     5   ar
    15     5    22    1
    16    22    23    1
    17    23    24   ar
    18    24    25   ar
    19    25    26   ar
    20    26    29    1
    21    29    30    1
    22    29    31    2
    23    29    32    2
    24    26    27   ar
    25    27    28   ar
    26     5     6   ar
    27     6     7   ar
    28     7     8   ar
    29     8     9   ar
    30    15    16    1
    31    16    17    1
    32    17    12    1
    33     9     1   ar
    34     9     4   ar
    35    28    23   ar
@<TRIPOS>MOLECULE
*****
 32 35 0 0 0
SMALL
GASTEIGER

@<TRIPOS>ATOM
      1 N          61.1463   86.1841    8.9305 N.ar    1  UNL1       -0.2357
      2 N          60.5737   85.6952    7.6331 N.ar    1  UNL1       -0.1663
      3 C          59.8362   86.8341    6.9935 C.ar    1  UNL1        0.1279
      4 C          59.9531   88.0269    7.8957 C.ar    1  UNL1        0.1099
      5 C          59.4267   89.4269    7.7817 C.ar    1  UNL1        0.2355
      6 N          59.7101   90.4251    8.8648 N.ar    1  UNL1       -0.1889
      7 C          60.5198   90.0234   10.0619 C.ar    1  UNL1        0.2029
      8 N          61.0461   88.6234   10.1758 N.ar    1  UNL1       -0.2049
      9 C          60.7627   87.6251    9.0927 C.ar    1  UNL1        0.1671
     10 C          64.3999   82.9443   12.7928 C.2     1  UNL1        0.2256
     11 O          65.3984   81.9485   12.2816 O.2     1  UNL1       -0.2749
     12 N          63.5866   83.7542   11.8272 N.am    1  UNL1       -0.2794
     13 C          62.5881   84.7501   12.3385 C.3     1  UNL1        0.0954
     14 C          61.7747   85.5600   11.3729 C.3     1  UNL1        0.0459
     15 C          61.9597   85.3742    9.8961 C.3     1  UNL1        0.1102
     16 C          62.9582   84.3783    9.3848 C.3     1  UNL1        0.0459
     17 C          63.7715   83.5684   10.3504 C.3     1  UNL1        0.0954
     18 C          64.2149   83.1302   14.2697 C.3     1  UNL1        0.0853
     19 C          62.3858   84.0650   15.8607 C.3     1  UNL1        0.0005
     20 C          62.8443   83.0345   14.8717 C.3     1  UNL1        0.0091
     21 C          61.9322   81.9083   14.4849 C.3     1  UNL1        0.0005
     22 O          58.6170   89.8286    6.5846 O.3     1  UNL1       -0.4359
     23 C          59.2289   90.6904    5.5202 C.ar    1  UNL1        0.1473
     24 C          60.7029   90.6180    5.2520 C.ar    1  UNL1        0.0389
     25 C          61.3148   91.4798    4.1876 C.ar    1  UNL1        0.0215
     26 C          60.4527   92.4140    3.3914 C.ar    1  UNL1        0.1059
     27 C          58.9785   92.4864    3.6596 C.ar    1  UNL1        0.0215
     28 C          58.3667   91.6246    4.7239 C.ar    1  UNL1        0.0389
     29 S          61.0645   93.2758    2.3270 S.O2    1  UNL1        0.0105
     30 C          61.6764   94.1375    1.2626 C.3     1  UNL1        0.1816
     31 O          62.3752   92.5692    2.5084 O.2     1  UNL1       -0.1686
     32 O          59.7538   93.9823    2.1456 O.2     1  UNL1       -0.1686
@<TRIPOS>BOND
     1    19    20    1
     2    20    21    1
     3    20    18    1
     4    18    10    1
     5    10    11    2
     6    10    12   am
     7    12    13    1
     8    13    14    1
     9    14    15    1
    10    15     1    1
    11     1     2   ar
    12     2     3   ar
    13     3     4   ar
    14     4     5   ar
    15     5    22    1
    16    22    23    1
    17    23    24   ar
    18    24    25   ar
    19    25    26   ar
    20    26    29    1
    21    29    30    1
    22    29    31    2
    23    29    32    2
    24    26    27   ar
    25    27    28   ar
    26     5     6   ar
    27     6     7   ar
    28     7     8   ar
    29     8     9   ar
    30    15    16    1
    31    16    17    1
    32    17    12    1
    33     9     1   ar
    34     9     4   ar
    35    28    23   ar
@<TRIPOS>MOLECULE
*****
 32 35 0 0 0
SMALL
GASTEIGER

@<TRIPOS>ATOM
      1 N          64.3046   89.8816   13.5120 N.ar    1  UNL1       -0.2357
      2 N          63.3968   90.8516   12.8155 N.ar    1  UNL1       -0.1663
      3 C          64.0137   92.2154   12.9127 C.ar    1  UNL1        0.1279
      4 C          65.3027   92.0882   13.6693 C.ar    1  UNL1        0.1099
      5 C          66.3359   93.0996   14.0688 C.ar    1  UNL1        0.2355
      6 N          67.5490   92.6685   14.8387 N.ar    1  UNL1       -0.1889
      7 C          67.7287   91.2262   15.2090 C.ar    1  UNL1        0.2029
      8 N          66.6955   90.2148   14.8095 N.ar    1  UNL1       -0.2049
      9 C          65.4825   90.6459   14.0396 C.ar    1  UNL1        0.1671
     10 C          63.3856   83.9802   14.0864 C.2     1  UNL1        0.2256
     11 O          63.8902   83.2572   15.3000 O.2     1  UNL1       -0.2749
     12 N          63.6154   85.4555   13.9428 N.am    1  UNL1       -0.2794
     13 C          63.1107   86.1786   12.7293 C.3     1  UNL1        0.0954
     14 C          63.3405   87.6539   12.5857 C.3     1  UNL1        0.0459
     15 C          64.0748   88.4063   13.6556 C.3     1  UNL1        0.1102
     16 C          64.5795   87.6832   14.8691 C.3     1  UNL1        0.0459
     17 C          64.3497   86.2079   15.0127 C.3     1  UNL1        0.0954
     18 C          62.6512   83.2279   13.0165 C.3     1  UNL1        0.0853
     19 C          61.3174   81.2952   14.1282 C.3     1  UNL1        0.0005
     20 C          62.3827   81.7613   13.1806 C.3     1  UNL1        0.0091
     21 C          63.1795   80.7607   12.3971 C.3     1  UNL1        0.0005
     22 O          66.1561   94.5420   13.6984 O.3     1  UNL1       -0.4359
     23 C          66.2050   94.9582   12.2581 C.ar    1  UNL1        0.1473
     24 C          66.5347   93.9506   11.1970 C.ar    1  UNL1        0.0389
     25 C          66.5836   94.3668    9.7568 C.ar    1  UNL1        0.0215
     26 C          66.3028   95.7906    9.3776 C.ar    1  UNL1        0.1059
     27 C          65.9731   96.7983   10.4387 C.ar    1  UNL1        0.0215
     28 C          65.9242   96.3821   11.8790 C.ar    1  UNL1        0.0389
     29 S          66.3517   96.2068    7.9373 S.O2    1  UNL1        0.0105
     30 C          66.4006   96.6230    6.4970 C.3     1  UNL1        0.1816
     31 O          67.6989   95.5623    7.7968 O.2     1  UNL1       -0.1686
     32 O          65.0045   96.8512    8.0778 O.2     1  UNL1       -0.1686
@<TRIPOS>BOND
     1    19    20    1
     2    20    21    1
     3    20    18    1
     4    18    10    1
     5    10    11    2
     6    10    12   am
     7    12    13    1
     8    13    14    1
     9    14    15    1
    10    15     1    1
    11     1     2   ar
    12     2     3   ar
    13     3     4   ar
    14     4     5   ar
    15     5    22    1
    16    22    23    1
    17    23    24   ar
    18    24    25   ar
    19    25    26   ar
    20    26    29    1
    21    29    30    1
    22    29    31    2
    23    29    32    2
    24    26    27   ar
    25    27    28   ar
    26     5     6   ar
    27     6     7   ar
    28     7     8   ar
    29     8     9   ar
    30    15    16    1
    31    16    17    1
    32    17    12    1
    33     9     1   ar
    34     9     4   ar
    35    28    23   ar
@<TRIPOS>MOLECULE
*****
 32 35 0 0 0
SMALL
GASTEIGER

@<TRIPOS>ATOM
      1 N          59.3379   90.3438    6.1805 N.ar    1  UNL1       -0.2357
      2 N          57.8993   90.6912    5.9356 N.ar    1  UNL1       -0.1663
      3 C          57.8329   91.5532    4.7098 C.ar    1  UNL1        0.1279
      4 C          59.2304   91.7385    4.1971 C.ar    1  UNL1        0.1099
      5 C          59.7761   92.4913    3.0200 C.ar    1  UNL1        0.2355
      6 N          61.2519   92.4966    2.7519 N.ar    1  UNL1       -0.1889
      7 C          62.1820   91.7492    3.6608 C.ar    1  UNL1        0.2029
      8 N          61.6363   90.9964    4.8379 N.ar    1  UNL1       -0.2049
      9 C          60.1605   90.9910    5.1061 C.ar    1  UNL1        0.1671
     10 C          61.4338   86.9594   10.6697 C.2     1  UNL1        0.2256
     11 O          62.0120   87.6089   11.8919 O.2     1  UNL1       -0.2749
     12 N          60.9098   87.8055    9.5474 N.am    1  UNL1       -0.2794
     13 C          60.3316   87.1559    8.3252 C.3     1  UNL1        0.0954
     14 C          59.8076   88.0020    7.2030 C.3     1  UNL1        0.0459
     15 C          59.8618   89.4977    7.3028 C.3     1  UNL1        0.1102
     16 C          60.4400   90.1473    8.5250 C.3     1  UNL1        0.0459
     17 C          60.9640   89.3011    9.6473 C.3     1  UNL1        0.0954
     18 C          61.3795   85.4637   10.5698 C.3     1  UNL1        0.0853
     19 C          62.9013   84.3052   12.3284 C.3     1  UNL1        0.0005
     20 C          62.5925   84.6455   10.9004 C.3     1  UNL1        0.0091
     21 C          63.4967   84.1675    9.8032 C.3     1  UNL1        0.0005
     22 O          58.8459   93.2387    2.1111 O.3     1  UNL1       -0.4359
     23 C          59.2607   93.5479    0.7031 C.ar    1  UNL1        0.1473
     24 C          59.2249   92.4731   -0.3425 C.ar    1  UNL1        0.0389
     25 C          59.6398   92.7823   -1.7504 C.ar    1  UNL1        0.0215
     26 C          60.0904   94.1664   -2.1127 C.ar    1  UNL1        0.1059
     27 C          60.1262   95.2413   -1.0671 C.ar    1  UNL1        0.0215
     28 C          59.7114   94.9321    0.3409 C.ar    1  UNL1        0.0389
     29 S          60.5052   94.4756   -3.5207 S.O2    1  UNL1        0.0105
     30 C          60.9201   94.7848   -4.9286 C.3     1  UNL1        0.1816
     31 O          59.3158   95.3768   -3.6732 O.2     1  UNL1       -0.1686
     32 O          61.6946   93.5744   -3.3682 O.2     1  UNL1       -0.1686
@<TRIPOS>BOND
     1    19    20    1
     2    20    21    1
     3    20    18    1
     4    18    10    1
     5    10    11    2
     6    10    12   am
     7    12    13    1
     8    13    14    1
     9    14    15    1
    10    15     1    1
    11     1     2   ar
    12     2     3   ar
    13     3     4   ar
    14     4     5   ar
    15     5    22    1
    16    22    23    1
    17    23    24   ar
    18    24    25   ar
    19    25    26   ar
    20    26    29    1
    21    29    30    1
    22    29    31    2
    23    29    32    2
    24    26    27   ar
    25    27    28   ar
    26     5     6   ar
    27     6     7   ar
    28     7     8   ar
    29     8     9   ar
    30    15    16    1
    31    16    17    1
    32    17    12    1
    33     9     1   ar
    34     9     4   ar
    35    28    23   ar
@<TRIPOS>MOLECULE
*****
 32 35 0 0 0
SMALL
GASTEIGER

@<TRIPOS>ATOM
      1 N          61.5274   87.9090    9.9427 N.ar    1  UNL1       -0.2357
      2 N          61.6591   89.3898   10.1430 N.ar    1  UNL1       -0.1663
      3 C          60.8120   90.0742    9.1115 C.ar    1  UNL1        0.1279
      4 C          60.1567   89.0163    8.2737 C.ar    1  UNL1        0.1099
      5 C          59.2146   89.0987    7.1094 C.ar    1  UNL1        0.2355
      6 N          58.7146   87.8430    6.4589 N.ar    1  UNL1       -0.1889
      7 C          59.1568   86.5049    6.9727 C.ar    1  UNL1        0.2029
      8 N          60.0990   86.4226    8.1369 N.ar    1  UNL1       -0.2049
      9 C          60.5989   87.6782    8.7875 C.ar    1  UNL1        0.1671
     10 C          64.2387   83.6558   13.1922 C.2     1  UNL1        0.2256
     11 O          64.4606   82.2924   12.6074 O.2     1  UNL1       -0.2749
     12 N          63.5609   84.7191   12.3798 N.am    1  UNL1       -0.2794
     13 C          63.3390   86.0825   12.9646 C.3     1  UNL1        0.0954
     14 C          62.6612   87.1458   12.1523 C.3     1  UNL1        0.0459
     15 C          62.2052   86.8458   10.7551 C.3     1  UNL1        0.1102
     16 C          62.4272   85.4824   10.1703 C.3     1  UNL1        0.0459
     17 C          63.1050   84.4191   10.9827 C.3     1  UNL1        0.0954
     18 C          64.6946   83.9559   14.5894 C.3     1  UNL1        0.0853
     19 C          64.0829   85.6240   16.4851 C.3     1  UNL1        0.0005
     20 C          63.7154   84.4667   15.6044 C.3     1  UNL1        0.0091
     21 C          62.3686   83.8202   15.7387 C.3     1  UNL1        0.0005
     22 O          58.7724   90.4369    6.5957 O.3     1  UNL1       -0.4359
     23 C          59.4914   91.0726    5.4429 C.ar    1  UNL1        0.1473
     24 C          60.9204   90.7144    5.1608 C.ar    1  UNL1        0.0389
     25 C          61.6394   91.3501    4.0080 C.ar    1  UNL1        0.0215
     26 C          60.9295   92.3441    3.1374 C.ar    1  UNL1        0.1059
     27 C          59.5004   92.7023    3.4195 C.ar    1  UNL1        0.0215
     28 C          58.7814   92.0666    4.5723 C.ar    1  UNL1        0.0389
     29 S          61.6485   92.9798    1.9847 S.O2    1  UNL1        0.0105
     30 C          62.3675   93.6155    0.8319 C.3     1  UNL1        0.1816
     31 O          62.9632   92.5653    2.5761 O.2     1  UNL1       -0.1686
     32 O          60.3338   93.3943    1.3933 O.2     1  UNL1       -0.1686
@<TRIPOS>BOND
     1    19    20    1
     2    20    21    1
     3    20    18    1
     4    18    10    1
     5    10    11    2
     6    10    12   am
     7    12    13    1
     8    13    14    1
     9    14    15    1
    10    15     1    1
    11     1     2   ar
    12     2     3   ar
    13     3     4   ar
    14     4     5   ar
    15     5    22    1
    16    22    23    1
    17    23    24   ar
    18    24    25   ar
    19    25    26   ar
    20    26    29    1
    21    29    30    1
    22    29    31    2
    23    29    32    2
    24    26    27   ar
    25    27    28   ar
    26     5     6   ar
    27     6     7   ar
    28     7     8   ar
    29     8     9   ar
    30    15    16    1
    31    16    17    1
    32    17    12    1
    33     9     1   ar
    34     9     4   ar
    35    28    23   ar
