@<TRIPOS>MOLECULE
*****
 42 47 0 0 0
SMALL
GASTEIGER

@<TRIPOS>ATOM
      1 N          65.3062   92.3838   12.0381 N.3     1  UNL1       -0.2679
      2 C          66.3614   92.7413   11.0337 C.3     1  UNL1        0.0978
      3 C          67.3927   91.7272   10.6361 C.3     1  UNL1        0.0224
      4 C          68.4479   92.0846    9.6318 C.3     1  UNL1        0.0065
      5 C          68.4718   93.4561    9.0250 C.3     1  UNL1        0.0277
      6 C          67.4406   94.4702    9.4225 C.ar    1  UNL1       -0.0073
      7 C          67.4646   95.8419    8.8157 C.ar    1  UNL1       -0.0015
      8 C          66.4333   96.8560    9.2133 C.ar    1  UNL1        0.0203
      9 C          65.3781   96.4985   10.2177 C.ar    1  UNL1        0.0985
     10 N          65.3541   95.1270   10.8245 N.ar    1  UNL1       -0.2471
     11 C          66.3854   94.1128   10.4269 C.ar    1  UNL1        0.0695
     12 C          63.9069   92.0911   11.5839 C.3     1  UNL1        0.0725
     13 C          63.5849   90.7702   10.9503 C.3     1  UNL1        0.0188
     14 C          62.5964   89.8478   11.6001 C.3     1  UNL1        0.0188
     15 C          62.7989   88.3632   11.5320 C.3     1  UNL1        0.0728
     16 N          61.6215   87.4399   11.6385 N.3     1  UNL1       -0.2626
     17 C          61.7997   86.0583   12.1946 C.3     1  UNL1        0.1189
     18 C          64.4275   83.0947   10.0587 C.ar    1  UNL1        0.0207
     19 C          63.5874   84.0562    9.2713 C.ar    1  UNL1        0.0028
     20 C          62.7115   85.0441    9.9832 C.ar    1  UNL1        0.0161
     21 C          62.6756   85.0704   11.4826 C.ar    1  UNL1        0.0752
     22 N          63.5156   84.1090   12.2700 N.ar    1  UNL1       -0.2468
     23 C          64.3915   83.1211   11.5580 C.ar    1  UNL1        0.0985
     24 C          60.2659   87.8984   11.1889 C.3     1  UNL1        0.1189
     25 C          59.9445   87.9667    9.7254 C.ar    1  UNL1        0.0752
     26 C          60.0679   89.2684    8.9903 C.ar    1  UNL1        0.0161
     27 C          59.7465   89.3367    7.5268 C.ar    1  UNL1        0.0028
     28 C          59.3017   88.1033    6.7982 C.ar    1  UNL1        0.0207
     29 C          59.1783   86.8016    7.5332 C.ar    1  UNL1        0.0985
     30 N          59.4997   86.7332    8.9968 N.ar    1  UNL1       -0.2468
     31 C          65.6503   92.3191   13.4966 C.3     1  UNL1        0.0886
     32 C          64.9724   91.3169   14.3834 C.3     1  UNL1        0.0748
     33 C          65.0800   89.8521   14.0788 C.3     1  UNL1        0.0432
     34 C          64.4021   88.8499   14.9656 C.ar    1  UNL1       -0.0234
     35 C          64.5097   87.3851   14.6610 C.ar    1  UNL1       -0.0045
     36 C          63.8318   86.3831   15.5478 C.ar    1  UNL1       -0.0003
     37 C          63.0464   86.8458   16.7390 C.ar    1  UNL1       -0.0003
     38 C          62.9389   88.3105   17.0436 C.ar    1  UNL1       -0.0032
     39 C          63.6167   89.3126   16.1568 C.ar    1  UNL1       -0.0103
     40 C          63.5092   90.7775   16.4613 C.3     1  UNL1        0.0953
     41 N          64.1870   91.7796   15.5746 N.3     1  UNL1       -0.2934
     42 H          64.8304   92.3072   16.1646 H       1  UNL1        0.1236
@<TRIPOS>BOND
     1    18    19   ar
     2    19    20   ar
     3    20    21   ar
     4    21    17    1
     5    17    16    1
     6    16    15    1
     7    15    14    1
     8    14    13    1
     9    13    12    1
    10    12     1    1
    11     1    31    1
    12    32    31    1
    13    32    33    1
    14    33    34    1
    15    34    35   ar
    16    35    36   ar
    17    36    37   ar
    18    37    38   ar
    19    38    39   ar
    20    39    40    1
    21    40    41    1
    22     2     1    1
    23     2     3    1
    24     3     4    1
    25     4     5    1
    26     5     6    1
    27     6     7   ar
    28     7     8   ar
    29     8     9   ar
    30     9    10   ar
    31    10    11   ar
    32    16    24    1
    33    24    25    1
    34    25    26   ar
    35    26    27   ar
    36    27    28   ar
    37    28    29   ar
    38    29    30   ar
    39    21    22   ar
    40    22    23   ar
    41    23    18   ar
    42    41    32    1
    43    11     2    1
    44    30    25   ar
    45    39    34   ar
    46    11     6   ar
    47    41    42    1
@<TRIPOS>MOLECULE
*****
 42 47 0 0 0
SMALL
GASTEIGER

@<TRIPOS>ATOM
      1 N          65.2042   92.3535   12.0747 N.3     1  UNL1       -0.2679
      2 C          66.3019   92.6961   11.1115 C.3     1  UNL1        0.0978
      3 C          67.3790   91.6953   10.8150 C.3     1  UNL1        0.0224
      4 C          68.4767   92.0380    9.8519 C.3     1  UNL1        0.0065
      5 C          68.4972   93.3815    9.1852 C.3     1  UNL1        0.0277
      6 C          67.4201   94.3824    9.4818 C.ar    1  UNL1       -0.0073
      7 C          67.4406   95.7260    8.8151 C.ar    1  UNL1       -0.0015
      8 C          66.3634   96.7269    9.1117 C.ar    1  UNL1        0.0203
      9 C          65.2657   96.3842   10.0748 C.ar    1  UNL1        0.0985
     10 N          65.2452   95.0406   10.7415 N.ar    1  UNL1       -0.2471
     11 C          66.3224   94.0397   10.4449 C.ar    1  UNL1        0.0695
     12 C          63.8349   92.0177   11.5627 C.3     1  UNL1        0.0725
     13 C          63.1625   90.7486   11.9957 C.3     1  UNL1        0.0188
     14 C          62.9149   89.6538   11.0008 C.3     1  UNL1        0.0188
     15 C          62.9228   88.2211   11.4447 C.3     1  UNL1        0.0728
     16 N          61.6368   87.4527   11.5216 N.3     1  UNL1       -0.2626
     17 C          60.3592   88.0791   11.0467 C.3     1  UNL1        0.1189
     18 C          59.2878   87.9695    6.6775 C.ar    1  UNL1        0.0207
     19 C          59.3543   86.6949    7.4656 C.ar    1  UNL1        0.0028
     20 C          59.7114   86.7314    8.9220 C.ar    1  UNL1        0.0161
     21 C          60.0021   88.0426    9.5903 C.ar    1  UNL1        0.0752
     22 N          59.9356   89.3171    8.8022 N.ar    1  UNL1       -0.2468
     23 C          59.5784   89.2806    7.3458 C.ar    1  UNL1        0.0985
     24 C          61.6284   86.0579   12.0734 C.3     1  UNL1        0.1189
     25 C          62.5704   85.0282   11.5236 C.ar    1  UNL1        0.0752
     26 C          62.7264   84.8704   10.0400 C.ar    1  UNL1        0.0161
     27 C          63.6684   83.8407    9.4903 C.ar    1  UNL1        0.0028
     28 C          64.4545   82.9687   10.4240 C.ar    1  UNL1        0.0207
     29 C          64.2985   83.1265   11.9074 C.ar    1  UNL1        0.0985
     30 N          63.3565   84.1562   12.4573 N.ar    1  UNL1       -0.2468
     31 C          65.4759   92.3465   13.5499 C.3     1  UNL1        0.0886
     32 C          64.8376   91.3089   14.4251 C.3     1  UNL1        0.0748
     33 C          65.0192   89.8523   14.1162 C.3     1  UNL1        0.0432
     34 C          64.3809   88.8147   14.9915 C.ar    1  UNL1       -0.0234
     35 C          64.5625   87.3582   14.6826 C.ar    1  UNL1       -0.0045
     36 C          63.9242   86.3207   15.5579 C.ar    1  UNL1       -0.0003
     37 C          63.1044   86.7397   16.7420 C.ar    1  UNL1       -0.0003
     38 C          62.9228   88.1962   17.0510 C.ar    1  UNL1       -0.0032
     39 C          63.5611   89.2337   16.1757 C.ar    1  UNL1       -0.0103
     40 C          63.3795   90.6904   16.4846 C.3     1  UNL1        0.0953
     41 N          64.0178   91.7279   15.6093 N.3     1  UNL1       -0.2934
     42 H          64.6284   92.2834   16.2085 H       1  UNL1        0.1236
@<TRIPOS>BOND
     1    18    19   ar
     2    19    20   ar
     3    20    21   ar
     4    21    17    1
     5    17    16    1
     6    16    15    1
     7    15    14    1
     8    14    13    1
     9    13    12    1
    10    12     1    1
    11     1    31    1
    12    32    31    1
    13    32    33    1
    14    33    34    1
    15    34    35   ar
    16    35    36   ar
    17    36    37   ar
    18    37    38   ar
    19    38    39   ar
    20    39    40    1
    21    40    41    1
    22     2     1    1
    23     2     3    1
    24     3     4    1
    25     4     5    1
    26     5     6    1
    27     6     7   ar
    28     7     8   ar
    29     8     9   ar
    30     9    10   ar
    31    10    11   ar
    32    16    24    1
    33    24    25    1
    34    25    26   ar
    35    26    27   ar
    36    27    28   ar
    37    28    29   ar
    38    29    30   ar
    39    21    22   ar
    40    22    23   ar
    41    23    18   ar
    42    41    32    1
    43    11     2    1
    44    30    25   ar
    45    39    34   ar
    46    11     6   ar
    47    41    42    1
@<TRIPOS>MOLECULE
*****
 42 47 0 0 0
SMALL
GASTEIGER

@<TRIPOS>ATOM
      1 N          62.0344   87.5537   11.1390 N.3     1  UNL1       -0.2679
      2 C          61.0937   87.2460   10.0119 C.3     1  UNL1        0.0978
      3 C          59.7105   87.8263   10.0098 C.3     1  UNL1        0.0224
      4 C          58.7698   87.5185    8.8827 C.3     1  UNL1        0.0065
      5 C          59.2122   86.6304    7.7578 C.3     1  UNL1        0.0277
      6 C          60.5953   86.0501    7.7599 C.ar    1  UNL1       -0.0073
      7 C          61.0378   85.1620    6.6349 C.ar    1  UNL1       -0.0015
      8 C          62.4210   84.5816    6.6371 C.ar    1  UNL1        0.0203
      9 C          63.3617   84.8894    7.7641 C.ar    1  UNL1        0.0985
     10 N          62.9193   85.7775    8.8891 N.ar    1  UNL1       -0.2471
     11 C          61.5361   86.3579    8.8870 C.ar    1  UNL1        0.0695
     12 C          61.8610   88.8108   11.9386 C.3     1  UNL1        0.0725
     13 C          62.1118   90.1456   11.3017 C.3     1  UNL1        0.0188
     14 C          63.5115   90.6737   11.1932 C.3     1  UNL1        0.0188
     15 C          63.8937   91.9372   11.9056 C.3     1  UNL1        0.0728
     16 N          64.9578   91.9099   12.9625 N.3     1  UNL1       -0.2626
     17 C          64.5751   91.8176   14.4099 C.3     1  UNL1        0.1189
     18 C          63.4546   87.8402   16.1918 C.ar    1  UNL1        0.0207
     19 C          64.2529   87.8954   14.9230 C.ar    1  UNL1        0.0028
     20 C          64.6264   89.2212   14.3290 C.ar    1  UNL1        0.0161
     21 C          64.2016   90.4918   15.0038 C.ar    1  UNL1        0.0752
     22 N          63.4033   90.4365   16.2725 N.ar    1  UNL1       -0.2468
     23 C          63.0298   89.1107   16.8665 C.ar    1  UNL1        0.0985
     24 C          66.4046   91.9748   12.5719 C.3     1  UNL1        0.1189
     25 C          66.8401   92.8762   11.4549 C.ar    1  UNL1        0.0752
     26 C          67.6263   92.3195   10.3050 C.ar    1  UNL1        0.0161
     27 C          68.0618   93.2209    9.1880 C.ar    1  UNL1        0.0028
     28 C          67.7113   94.6790    9.2207 C.ar    1  UNL1        0.0207
     29 C          66.9251   95.2357   10.3705 C.ar    1  UNL1        0.0985
     30 N          66.4895   94.3343   11.4876 N.ar    1  UNL1       -0.2468
     31 C          63.1486   86.6043   11.4664 C.3     1  UNL1        0.0886
     32 C          62.8541   85.3224   12.1875 C.3     1  UNL1        0.0748
     33 C          63.0478   84.0083   11.4907 C.3     1  UNL1        0.0432
     34 C          62.7533   82.7264   12.2118 C.ar    1  UNL1       -0.0234
     35 C          62.9469   81.4123   11.5149 C.ar    1  UNL1       -0.0045
     36 C          62.6524   80.1304   12.2361 C.ar    1  UNL1       -0.0003
     37 C          62.1643   80.1626   13.6540 C.ar    1  UNL1       -0.0003
     38 C          61.9706   81.4767   14.3509 C.ar    1  UNL1       -0.0032
     39 C          62.2651   82.7586   13.6298 C.ar    1  UNL1       -0.0103
     40 C          62.0715   84.0727   14.3266 C.3     1  UNL1        0.0953
     41 N          62.3660   85.3546   13.6055 N.3     1  UNL1       -0.2934
     42 H          63.0768   85.8425   14.1506 H       1  UNL1        0.1236
@<TRIPOS>BOND
     1    18    19   ar
     2    19    20   ar
     3    20    21   ar
     4    21    17    1
     5    17    16    1
     6    16    15    1
     7    15    14    1
     8    14    13    1
     9    13    12    1
    10    12     1    1
    11     1    31    1
    12    32    31    1
    13    32    33    1
    14    33    34    1
    15    34    35   ar
    16    35    36   ar
    17    36    37   ar
    18    37    38   ar
    19    38    39   ar
    20    39    40    1
    21    40    41    1
    22     2     1    1
    23     2     3    1
    24     3     4    1
    25     4     5    1
    26     5     6    1
    27     6     7   ar
    28     7     8   ar
    29     8     9   ar
    30     9    10   ar
    31    10    11   ar
    32    16    24    1
    33    24    25    1
    34    25    26   ar
    35    26    27   ar
    36    27    28   ar
    37    28    29   ar
    38    29    30   ar
    39    21    22   ar
    40    22    23   ar
    41    23    18   ar
    42    41    32    1
    43    11     2    1
    44    30    25   ar
    45    39    34   ar
    46    11     6   ar
    47    41    42    1
@<TRIPOS>MOLECULE
*****
 42 47 0 0 0
SMALL
GASTEIGER

@<TRIPOS>ATOM
      1 N          62.0676   87.5859   11.0607 N.3     1  UNL1       -0.2679
      2 C          61.1106   87.2450    9.9570 C.3     1  UNL1        0.0978
      3 C          59.7194   87.8057    9.9707 C.3     1  UNL1        0.0224
      4 C          58.7625   87.4648    8.8671 C.3     1  UNL1        0.0065
      5 C          59.1967   86.5632    7.7497 C.3     1  UNL1        0.0277
      6 C          60.5879   86.0025    7.7360 C.ar    1  UNL1       -0.0073
      7 C          61.0221   85.1009    6.6186 C.ar    1  UNL1       -0.0015
      8 C          62.4133   84.5402    6.6049 C.ar    1  UNL1        0.0203
      9 C          63.3702   84.8811    7.7086 C.ar    1  UNL1        0.0985
     10 N          62.9360   85.7827    8.8259 N.ar    1  UNL1       -0.2471
     11 C          61.5448   86.3434    8.8397 C.ar    1  UNL1        0.0695
     12 C          61.9101   88.8699   11.8200 C.3     1  UNL1        0.0725
     13 C          62.2521   90.1753   11.1651 C.3     1  UNL1        0.0188
     14 C          63.6595   90.6920   11.2122 C.3     1  UNL1        0.0188
     15 C          63.9704   91.9539   11.9611 C.3     1  UNL1        0.0728
     16 N          65.0187   91.9504   13.0341 N.3     1  UNL1       -0.2626
     17 C          66.4683   92.0675   12.6668 C.3     1  UNL1        0.1189
     18 C          67.6970   94.5467    9.1180 C.ar    1  UNL1        0.0207
     19 C          68.0320   93.0853    9.1641 C.ar    1  UNL1        0.0028
     20 C          67.6224   92.2589   10.3470 C.ar    1  UNL1        0.0161
     21 C          66.8779   92.8939   11.4839 C.ar    1  UNL1        0.0752
     22 N          66.5429   94.3553   11.4378 N.ar    1  UNL1       -0.2468
     23 C          66.9525   95.1817   10.2549 C.ar    1  UNL1        0.0985
     24 C          64.6173   91.8298   14.4744 C.3     1  UNL1        0.1189
     25 C          64.2275   90.4942   15.0350 C.ar    1  UNL1        0.0752
     26 C          64.6506   89.2355   14.3373 C.ar    1  UNL1        0.0161
     27 C          64.2608   87.8999   14.8979 C.ar    1  UNL1        0.0028
     28 C          63.4479   87.8230   16.1562 C.ar    1  UNL1        0.0207
     29 C          63.0249   89.0816   16.8539 C.ar    1  UNL1        0.0985
     30 N          63.4147   90.4173   16.2933 N.ar    1  UNL1       -0.2468
     31 C          63.1820   86.6428   11.4050 C.3     1  UNL1        0.0886
     32 C          62.8869   85.3706   12.1430 C.3     1  UNL1        0.0748
     33 C          63.0688   84.0478   11.4598 C.3     1  UNL1        0.0432
     34 C          62.7737   82.7756   12.1977 C.ar    1  UNL1       -0.0234
     35 C          62.9557   81.4527   11.5145 C.ar    1  UNL1       -0.0045
     36 C          62.6606   80.1806   12.2525 C.ar    1  UNL1       -0.0003
     37 C          62.1835   80.2314   13.6737 C.ar    1  UNL1       -0.0003
     38 C          62.0016   81.5543   14.3569 C.ar    1  UNL1       -0.0032
     39 C          62.2967   82.8264   13.6190 C.ar    1  UNL1       -0.0103
     40 C          62.1148   84.1493   14.3022 C.3     1  UNL1        0.0953
     41 N          62.4099   85.4214   13.5642 N.3     1  UNL1       -0.2934
     42 H          63.1272   85.9120   14.0982 H       1  UNL1        0.1236
@<TRIPOS>BOND
     1    18    19   ar
     2    19    20   ar
     3    20    21   ar
     4    21    17    1
     5    17    16    1
     6    16    15    1
     7    15    14    1
     8    14    13    1
     9    13    12    1
    10    12     1    1
    11     1    31    1
    12    32    31    1
    13    32    33    1
    14    33    34    1
    15    34    35   ar
    16    35    36   ar
    17    36    37   ar
    18    37    38   ar
    19    38    39   ar
    20    39    40    1
    21    40    41    1
    22     2     1    1
    23     2     3    1
    24     3     4    1
    25     4     5    1
    26     5     6    1
    27     6     7   ar
    28     7     8   ar
    29     8     9   ar
    30     9    10   ar
    31    10    11   ar
    32    16    24    1
    33    24    25    1
    34    25    26   ar
    35    26    27   ar
    36    27    28   ar
    37    28    29   ar
    38    29    30   ar
    39    21    22   ar
    40    22    23   ar
    41    23    18   ar
    42    41    32    1
    43    11     2    1
    44    30    25   ar
    45    39    34   ar
    46    11     6   ar
    47    41    42    1
@<TRIPOS>MOLECULE
*****
 42 47 0 0 0
SMALL
GASTEIGER

@<TRIPOS>ATOM
      1 N          62.2824   87.5714   10.6614 N.3     1  UNL1       -0.2679
      2 C          61.2006   87.1979    9.6918 C.3     1  UNL1        0.0978
      3 C          59.8146   87.7438    9.8677 C.3     1  UNL1        0.0224
      4 C          58.7328   87.3704    8.8980 C.3     1  UNL1        0.0065
      5 C          59.0369   86.4510    7.7525 C.3     1  UNL1        0.0277
      6 C          60.4229   85.9051    7.5767 C.ar    1  UNL1       -0.0073
      7 C          60.7272   84.9856    6.4312 C.ar    1  UNL1       -0.0015
      8 C          62.1131   84.4397    6.2553 C.ar    1  UNL1        0.0203
      9 C          63.1950   84.8132    7.2249 C.ar    1  UNL1        0.0985
     10 N          62.8908   85.7326    8.3704 N.ar    1  UNL1       -0.2471
     11 C          61.5047   86.2786    8.5463 C.ar    1  UNL1        0.0695
     12 C          63.2120   88.7060   10.3475 C.3     1  UNL1        0.0725
     13 C          62.6867   90.1094   10.2806 C.3     1  UNL1        0.0188
     14 C          62.3031   90.8275   11.5405 C.3     1  UNL1        0.0188
     15 C          62.5493   90.1862   12.8739 C.3     1  UNL1        0.0728
     16 N          63.6709   90.6713   13.7439 N.3     1  UNL1       -0.2626
     17 C          64.7252   91.5736   13.1746 C.3     1  UNL1        0.1189
     18 C          68.2806   92.7375   15.6755 C.ar    1  UNL1        0.0207
     19 C          68.4832   92.1749   14.2999 C.ar    1  UNL1        0.0028
     20 C          67.2981   91.7869   13.4662 C.ar    1  UNL1        0.0161
     21 C          65.9104   91.9616   14.0082 C.ar    1  UNL1        0.0752
     22 N          65.7078   92.5242   15.3838 N.ar    1  UNL1       -0.2468
     23 C          66.8929   92.9122   16.2175 C.ar    1  UNL1        0.0985
     24 C          63.7380   90.2542   15.1831 C.3     1  UNL1        0.1189
     25 C          63.7151   88.7984   15.5439 C.ar    1  UNL1        0.0752
     26 C          64.4790   87.8083   14.7155 C.ar    1  UNL1        0.0161
     27 C          64.4561   86.3525   15.0762 C.ar    1  UNL1        0.0028
     28 C          63.6693   85.8868   16.2654 C.ar    1  UNL1        0.0207
     29 C          62.9054   86.8768   17.0937 C.ar    1  UNL1        0.0985
     30 N          62.9283   88.3327   16.7330 N.ar    1  UNL1       -0.2468
     31 C          62.4346   86.8103   11.9450 C.3     1  UNL1        0.0886
     32 C          62.6160   85.3215   11.9172 C.3     1  UNL1        0.0748
     33 C          62.1306   84.4853   13.0639 C.3     1  UNL1        0.0432
     34 C          62.3120   82.9965   13.0361 C.ar    1  UNL1       -0.0234
     35 C          61.8266   82.1603   14.1829 C.ar    1  UNL1       -0.0045
     36 C          62.0080   80.6716   14.1550 C.ar    1  UNL1       -0.0003
     37 C          62.6748   80.0191   12.9804 C.ar    1  UNL1       -0.0003
     38 C          63.1602   80.8553   11.8337 C.ar    1  UNL1       -0.0032
     39 C          62.9788   82.3440   11.8615 C.ar    1  UNL1       -0.0103
     40 C          63.4642   83.1803   10.7147 C.3     1  UNL1        0.0953
     41 N          63.2828   84.6690   10.7426 N.3     1  UNL1       -0.2934
     42 H          62.7337   84.9142    9.9187 H       1  UNL1        0.1236
@<TRIPOS>BOND
     1    18    19   ar
     2    19    20   ar
     3    20    21   ar
     4    21    17    1
     5    17    16    1
     6    16    15    1
     7    15    14    1
     8    14    13    1
     9    13    12    1
    10    12     1    1
    11     1    31    1
    12    32    31    1
    13    32    33    1
    14    33    34    1
    15    34    35   ar
    16    35    36   ar
    17    36    37   ar
    18    37    38   ar
    19    38    39   ar
    20    39    40    1
    21    40    41    1
    22     2     1    1
    23     2     3    1
    24     3     4    1
    25     4     5    1
    26     5     6    1
    27     6     7   ar
    28     7     8   ar
    29     8     9   ar
    30     9    10   ar
    31    10    11   ar
    32    16    24    1
    33    24    25    1
    34    25    26   ar
    35    26    27   ar
    36    27    28   ar
    37    28    29   ar
    38    29    30   ar
    39    21    22   ar
    40    22    23   ar
    41    23    18   ar
    42    41    32    1
    43    11     2    1
    44    30    25   ar
    45    39    34   ar
    46    11     6   ar
    47    41    42    1
@<TRIPOS>MOLECULE
*****
 42 47 0 0 0
SMALL
GASTEIGER

@<TRIPOS>ATOM
      1 N          62.9348   90.5320   12.4544 N.3     1  UNL1       -0.2679
      2 C          64.1329   91.3982   12.2010 C.3     1  UNL1        0.0978
      3 C          64.5259   91.7420   10.7948 C.3     1  UNL1        0.0224
      4 C          65.7239   92.6082   10.5413 C.3     1  UNL1        0.0065
      5 C          66.5290   93.1307   11.6940 C.3     1  UNL1        0.0277
      6 C          66.1361   92.7869   13.1002 C.ar    1  UNL1       -0.0073
      7 C          66.9412   93.3094   14.2530 C.ar    1  UNL1       -0.0015
      8 C          66.5482   92.9656   15.6592 C.ar    1  UNL1        0.0203
      9 C          65.3502   92.0994   15.9126 C.ar    1  UNL1        0.0985
     10 N          64.5451   91.5769   14.7599 N.ar    1  UNL1       -0.2471
     11 C          64.9380   91.9207   13.3537 C.ar    1  UNL1        0.0695
     12 C          62.9534   89.5355   13.5754 C.3     1  UNL1        0.0725
     13 C          64.0477   88.5122   13.6513 C.3     1  UNL1        0.0188
     14 C          64.3743   87.8592   14.9615 C.3     1  UNL1        0.0188
     15 C          64.6582   86.3873   15.0156 C.3     1  UNL1        0.0728
     16 N          63.6568   85.4099   14.4752 N.3     1  UNL1       -0.2626
     17 C          63.1153   84.3252   15.3584 C.3     1  UNL1        0.1189
     18 C          62.3843   80.2136   13.6820 C.ar    1  UNL1        0.0207
     19 C          61.2243   81.0962   14.0364 C.ar    1  UNL1        0.0028
     20 C          61.4680   82.4668   14.5952 C.ar    1  UNL1        0.0161
     21 C          62.8716   82.9547   14.7996 C.ar    1  UNL1        0.0752
     22 N          64.0315   82.0721   14.4452 N.ar    1  UNL1       -0.2468
     23 C          63.7878   80.7016   13.8864 C.ar    1  UNL1        0.0985
     24 C          63.1969   85.5174   13.0515 C.3     1  UNL1        0.1189
     25 C          63.3945   84.3660   12.1106 C.ar    1  UNL1        0.0752
     26 C          62.2111   83.7340   11.4396 C.ar    1  UNL1        0.0161
     27 C          62.4087   82.5827   10.4987 C.ar    1  UNL1        0.0028
     28 C          63.7898   82.0634   10.2287 C.ar    1  UNL1        0.0207
     29 C          64.9732   82.6953   10.8996 C.ar    1  UNL1        0.0985
     30 N          64.7756   83.8467   11.8405 N.ar    1  UNL1       -0.2468
     31 C          61.7181   90.6622   11.5869 C.3     1  UNL1        0.0886
     32 C          61.3654   89.5702   10.6209 C.3     1  UNL1        0.0748
     33 C          62.3648   88.4975   10.3039 C.3     1  UNL1        0.0432
     34 C          62.0121   87.4055    9.3379 C.ar    1  UNL1       -0.0234
     35 C          63.0115   86.3328    9.0209 C.ar    1  UNL1       -0.0045
     36 C          62.6587   85.2409    8.0549 C.ar    1  UNL1       -0.0003
     37 C          61.3066   85.2216    7.4059 C.ar    1  UNL1       -0.0003
     38 C          60.3071   86.2943    7.7228 C.ar    1  UNL1       -0.0032
     39 C          60.6599   87.3862    8.6888 C.ar    1  UNL1       -0.0103
     40 C          59.6605   88.4590    9.0058 C.3     1  UNL1        0.0953
     41 N          60.0132   89.5509    9.9718 N.3     1  UNL1       -0.2934
     42 H          59.3259   89.5116   10.7244 H       1  UNL1        0.1236
@<TRIPOS>BOND
     1    18    19   ar
     2    19    20   ar
     3    20    21   ar
     4    21    17    1
     5    17    16    1
     6    16    15    1
     7    15    14    1
     8    14    13    1
     9    13    12    1
    10    12     1    1
    11     1    31    1
    12    32    31    1
    13    32    33    1
    14    33    34    1
    15    34    35   ar
    16    35    36   ar
    17    36    37   ar
    18    37    38   ar
    19    38    39   ar
    20    39    40    1
    21    40    41    1
    22     2     1    1
    23     2     3    1
    24     3     4    1
    25     4     5    1
    26     5     6    1
    27     6     7   ar
    28     7     8   ar
    29     8     9   ar
    30     9    10   ar
    31    10    11   ar
    32    16    24    1
    33    24    25    1
    34    25    26   ar
    35    26    27   ar
    36    27    28   ar
    37    28    29   ar
    38    29    30   ar
    39    21    22   ar
    40    22    23   ar
    41    23    18   ar
    42    41    32    1
    43    11     2    1
    44    30    25   ar
    45    39    34   ar
    46    11     6   ar
    47    41    42    1
@<TRIPOS>MOLECULE
*****
 42 47 0 0 0
SMALL
GASTEIGER

@<TRIPOS>ATOM
      1 N          61.6293   87.4121   11.0979 N.3     1  UNL1       -0.2679
      2 C          60.8401   87.0755    9.8676 C.3     1  UNL1        0.0978
      3 C          59.4403   87.5908    9.7101 C.3     1  UNL1        0.0224
      4 C          58.6511   87.2542    8.4798 C.3     1  UNL1        0.0065
      5 C          59.2617   86.4022    7.4068 C.3     1  UNL1        0.0277
      6 C          60.6616   85.8869    7.5642 C.ar    1  UNL1       -0.0073
      7 C          61.2723   85.0350    6.4912 C.ar    1  UNL1       -0.0015
      8 C          62.6721   84.5197    6.6486 C.ar    1  UNL1        0.0203
      9 C          63.4613   84.8563    7.8790 C.ar    1  UNL1        0.0985
     10 N          62.8507   85.7082    8.9520 N.ar    1  UNL1       -0.2471
     11 C          61.4508   86.2235    8.7946 C.ar    1  UNL1        0.0695
     12 C          61.2186   88.5694   11.9592 C.3     1  UNL1        0.0725
     13 C          61.0008   89.9208   11.3456 C.3     1  UNL1        0.0188
     14 C          62.1620   90.8483   11.1427 C.3     1  UNL1        0.0188
     15 C          63.5223   90.4686   11.6480 C.3     1  UNL1        0.0728
     16 N          64.1101   91.1830   12.8288 N.3     1  UNL1       -0.2626
     17 C          63.5046   91.0064   14.1898 C.3     1  UNL1        0.1189
     18 C          63.7464   87.0182   16.2598 C.ar    1  UNL1        0.0207
     19 C          64.4560   87.2303   14.9554 C.ar    1  UNL1        0.0028
     20 C          64.3754   88.5598   14.2653 C.ar    1  UNL1        0.0161
     21 C          63.5852   89.6770   14.8798 C.ar    1  UNL1        0.0752
     22 N          62.8757   89.4648   16.1842 N.ar    1  UNL1       -0.2468
     23 C          62.9563   88.1354   16.8742 C.ar    1  UNL1        0.0985
     24 C          65.3033   92.0739   12.6486 C.3     1  UNL1        0.1189
     25 C          66.2966   92.2314   13.7615 C.ar    1  UNL1        0.0752
     26 C          67.7482   91.9424   13.5177 C.ar    1  UNL1        0.0161
     27 C          68.7415   92.1000   14.6305 C.ar    1  UNL1        0.0028
     28 C          68.2832   92.5465   15.9872 C.ar    1  UNL1        0.0207
     29 C          66.8317   92.8355   16.2311 C.ar    1  UNL1        0.0985
     30 N          65.8383   92.6779   15.1181 N.ar    1  UNL1       -0.2468
     31 C          62.8293   86.5913   11.4671 C.3     1  UNL1        0.0886
     32 C          62.6530   85.2838   12.1809 C.3     1  UNL1        0.0748
     33 C          62.8739   83.9937   11.4484 C.3     1  UNL1        0.0432
     34 C          62.6976   82.6862   12.1621 C.ar    1  UNL1       -0.0234
     35 C          62.9185   81.3960   11.4296 C.ar    1  UNL1       -0.0045
     36 C          62.7421   80.0886   12.1434 C.ar    1  UNL1       -0.0003
     37 C          62.3449   80.0714   13.5897 C.ar    1  UNL1       -0.0003
     38 C          62.1240   81.3615   14.3223 C.ar    1  UNL1       -0.0032
     39 C          62.3003   82.6689   13.6085 C.ar    1  UNL1       -0.0103
     40 C          62.0794   83.9591   14.3410 C.3     1  UNL1        0.0953
     41 N          62.2558   85.2666   13.6272 N.3     1  UNL1       -0.2934
     42 H          62.9720   85.7853   14.1355 H       1  UNL1        0.1236
@<TRIPOS>BOND
     1    18    19   ar
     2    19    20   ar
     3    20    21   ar
     4    21    17    1
     5    17    16    1
     6    16    15    1
     7    15    14    1
     8    14    13    1
     9    13    12    1
    10    12     1    1
    11     1    31    1
    12    32    31    1
    13    32    33    1
    14    33    34    1
    15    34    35   ar
    16    35    36   ar
    17    36    37   ar
    18    37    38   ar
    19    38    39   ar
    20    39    40    1
    21    40    41    1
    22     2     1    1
    23     2     3    1
    24     3     4    1
    25     4     5    1
    26     5     6    1
    27     6     7   ar
    28     7     8   ar
    29     8     9   ar
    30     9    10   ar
    31    10    11   ar
    32    16    24    1
    33    24    25    1
    34    25    26   ar
    35    26    27   ar
    36    27    28   ar
    37    28    29   ar
    38    29    30   ar
    39    21    22   ar
    40    22    23   ar
    41    23    18   ar
    42    41    32    1
    43    11     2    1
    44    30    25   ar
    45    39    34   ar
    46    11     6   ar
    47    41    42    1
@<TRIPOS>MOLECULE
*****
 42 47 0 0 0
SMALL
GASTEIGER

@<TRIPOS>ATOM
      1 N          63.4642   90.2789   12.6914 N.3     1  UNL1       -0.2679
      2 C          64.3973   91.4005   12.3430 C.3     1  UNL1        0.0978
      3 C          64.5191   91.8603   10.9205 C.3     1  UNL1        0.0224
      4 C          65.4522   92.9819   10.5721 C.3     1  UNL1        0.0065
      5 C          66.2635   93.6436   11.6463 C.3     1  UNL1        0.0277
      6 C          66.1417   93.1838   13.0688 C.ar    1  UNL1       -0.0073
      7 C          66.9531   93.8455   14.1430 C.ar    1  UNL1       -0.0015
      8 C          66.8313   93.3856   15.5656 C.ar    1  UNL1        0.0203
      9 C          65.8982   92.2641   15.9140 C.ar    1  UNL1        0.0985
     10 N          65.0869   91.6023   14.8398 N.ar    1  UNL1       -0.2471
     11 C          65.2086   92.0622   13.4172 C.ar    1  UNL1        0.0695
     12 C          64.0106   88.9841   13.2156 C.3     1  UNL1        0.0725
     13 C          64.0385   88.7250   14.6929 C.3     1  UNL1        0.0188
     14 C          64.1962   87.3243   15.2058 C.3     1  UNL1        0.0188
     15 C          64.4439   86.1979   14.2468 C.3     1  UNL1        0.0728
     16 N          63.4128   85.1229   14.0700 N.3     1  UNL1       -0.2626
     17 C          63.4167   83.9243   14.9717 C.3     1  UNL1        0.1189
     18 C          61.9837   79.9460   13.4323 C.ar    1  UNL1        0.0207
     19 C          63.4256   80.3322   13.2842 C.ar    1  UNL1        0.0028
     20 C          63.9033   81.6583   13.7974 C.ar    1  UNL1        0.0161
     21 C          62.9391   82.5982   14.4585 C.ar    1  UNL1        0.0752
     22 N          61.4973   82.2119   14.6065 N.ar    1  UNL1       -0.2468
     23 C          61.0196   80.8858   14.0934 C.ar    1  UNL1        0.0985
     24 C          62.3777   85.2467   12.9914 C.3     1  UNL1        0.1189
     25 C          62.7490   84.9847   11.5620 C.ar    1  UNL1        0.0752
     26 C          63.4853   83.7301   11.1962 C.ar    1  UNL1        0.0161
     27 C          63.8566   83.4681    9.7667 C.ar    1  UNL1        0.0028
     28 C          63.4916   84.4607    8.7029 C.ar    1  UNL1        0.0207
     29 C          62.7553   85.7152    9.0687 C.ar    1  UNL1        0.0985
     30 N          62.3839   85.9773   10.4982 N.ar    1  UNL1       -0.2468
     31 C          61.9847   90.4521   12.5156 C.3     1  UNL1        0.0886
     32 C          61.2484   89.6287   11.5007 C.3     1  UNL1        0.0748
     33 C          61.0306   90.1634   10.1164 C.3     1  UNL1        0.0432
     34 C          60.2944   89.3400    9.1015 C.ar    1  UNL1       -0.0234
     35 C          60.0765   89.8747    7.7171 C.ar    1  UNL1       -0.0045
     36 C          59.3403   89.0513    6.7023 C.ar    1  UNL1       -0.0003
     37 C          58.8220   87.6930    7.0718 C.ar    1  UNL1       -0.0003
     38 C          59.0398   87.1583    8.4562 C.ar    1  UNL1       -0.0032
     39 C          59.7760   87.9817    9.4710 C.ar    1  UNL1       -0.0103
     40 C          59.9939   87.4470   10.8555 C.3     1  UNL1        0.0953
     41 N          60.7301   88.2705   11.8703 N.3     1  UNL1       -0.2934
     42 H          61.5348   87.7194   12.1689 H       1  UNL1        0.1236
@<TRIPOS>BOND
     1    18    19   ar
     2    19    20   ar
     3    20    21   ar
     4    21    17    1
     5    17    16    1
     6    16    15    1
     7    15    14    1
     8    14    13    1
     9    13    12    1
    10    12     1    1
    11     1    31    1
    12    32    31    1
    13    32    33    1
    14    33    34    1
    15    34    35   ar
    16    35    36   ar
    17    36    37   ar
    18    37    38   ar
    19    38    39   ar
    20    39    40    1
    21    40    41    1
    22     2     1    1
    23     2     3    1
    24     3     4    1
    25     4     5    1
    26     5     6    1
    27     6     7   ar
    28     7     8   ar
    29     8     9   ar
    30     9    10   ar
    31    10    11   ar
    32    16    24    1
    33    24    25    1
    34    25    26   ar
    35    26    27   ar
    36    27    28   ar
    37    28    29   ar
    38    29    30   ar
    39    21    22   ar
    40    22    23   ar
    41    23    18   ar
    42    41    32    1
    43    11     2    1
    44    30    25   ar
    45    39    34   ar
    46    11     6   ar
    47    41    42    1
@<TRIPOS>MOLECULE
*****
 42 47 0 0 0
SMALL
GASTEIGER

@<TRIPOS>ATOM
      1 N          63.4835   90.2952   12.7455 N.3     1  UNL1       -0.2679
      2 C          64.4195   91.4103   12.3841 C.3     1  UNL1        0.0978
      3 C          64.5296   91.8649   10.9590 C.3     1  UNL1        0.0224
      4 C          65.4655   92.9800   10.5976 C.3     1  UNL1        0.0065
      5 C          66.2913   93.6405   11.6614 C.3     1  UNL1        0.0277
      6 C          66.1812   93.1859   13.0866 C.ar    1  UNL1       -0.0073
      7 C          67.0071   93.8464   14.1505 C.ar    1  UNL1       -0.0015
      8 C          66.8970   93.3918   15.5756 C.ar    1  UNL1        0.0203
      9 C          65.9610   92.2767   15.9370 C.ar    1  UNL1        0.0985
     10 N          65.1352   91.6162   14.8732 N.ar    1  UNL1       -0.2471
     11 C          65.2453   92.0708   13.4479 C.ar    1  UNL1        0.0695
     12 C          64.0254   89.0113   13.3003 C.3     1  UNL1        0.0725
     13 C          63.9145   88.7226   14.7682 C.3     1  UNL1        0.0188
     14 C          64.1086   87.3239   15.2741 C.3     1  UNL1        0.0188
     15 C          64.4923   86.2290   14.3235 C.3     1  UNL1        0.0728
     16 N          63.5637   85.0729   14.0968 N.3     1  UNL1       -0.2626
     17 C          62.4891   85.1672   13.0546 C.3     1  UNL1        0.1189
     18 C          63.4792   84.4234    8.7283 C.ar    1  UNL1        0.0207
     19 C          63.8531   83.4092    9.7684 C.ar    1  UNL1        0.0028
     20 C          63.5230   83.6571   11.2105 C.ar    1  UNL1        0.0161
     21 C          62.8191   84.9192   11.6125 C.ar    1  UNL1        0.0752
     22 N          62.4453   85.9334   10.5725 N.ar    1  UNL1       -0.2468
     23 C          62.7753   85.6855    9.1304 C.ar    1  UNL1        0.0985
     24 C          63.7098   83.8225   14.9125 C.3     1  UNL1        0.1189
     25 C          63.0928   82.5406   14.4372 C.ar    1  UNL1        0.0752
     26 C          63.9444   81.4991   13.7737 C.ar    1  UNL1        0.0161
     27 C          63.3275   80.2172   13.2984 C.ar    1  UNL1        0.0028
     28 C          61.8589   79.9767   13.4865 C.ar    1  UNL1        0.0207
     29 C          61.0073   81.0181   14.1499 C.ar    1  UNL1        0.0985
     30 N          61.6242   82.3001   14.6253 N.ar    1  UNL1       -0.2468
     31 C          62.0057   90.4640   12.5520 C.3     1  UNL1        0.0886
     32 C          61.2805   89.6235   11.5431 C.3     1  UNL1        0.0748
     33 C          61.0371   90.1538   10.1613 C.3     1  UNL1        0.0432
     34 C          60.3119   89.3133    9.1524 C.ar    1  UNL1       -0.0234
     35 C          60.0685   89.8435    7.7705 C.ar    1  UNL1       -0.0045
     36 C          59.3433   89.0031    6.7617 C.ar    1  UNL1       -0.0003
     37 C          58.8616   87.6324    7.1348 C.ar    1  UNL1       -0.0003
     38 C          59.1050   87.1022    8.5166 C.ar    1  UNL1       -0.0032
     39 C          59.8302   87.9426    9.5254 C.ar    1  UNL1       -0.0103
     40 C          60.0736   87.4124   10.9074 C.3     1  UNL1        0.0953
     41 N          60.7988   88.2529   11.9162 N.3     1  UNL1       -0.2934
     42 H          61.6194   87.7214   12.2069 H       1  UNL1        0.1236
@<TRIPOS>BOND
     1    18    19   ar
     2    19    20   ar
     3    20    21   ar
     4    21    17    1
     5    17    16    1
     6    16    15    1
     7    15    14    1
     8    14    13    1
     9    13    12    1
    10    12     1    1
    11     1    31    1
    12    32    31    1
    13    32    33    1
    14    33    34    1
    15    34    35   ar
    16    35    36   ar
    17    36    37   ar
    18    37    38   ar
    19    38    39   ar
    20    39    40    1
    21    40    41    1
    22     2     1    1
    23     2     3    1
    24     3     4    1
    25     4     5    1
    26     5     6    1
    27     6     7   ar
    28     7     8   ar
    29     8     9   ar
    30     9    10   ar
    31    10    11   ar
    32    16    24    1
    33    24    25    1
    34    25    26   ar
    35    26    27   ar
    36    27    28   ar
    37    28    29   ar
    38    29    30   ar
    39    21    22   ar
    40    22    23   ar
    41    23    18   ar
    42    41    32    1
    43    11     2    1
    44    30    25   ar
    45    39    34   ar
    46    11     6   ar
    47    41    42    1
