@<TRIPOS>MOLECULE
*****
 34 37 0 0 0
SMALL
GASTEIGER

@<TRIPOS>ATOM
      1 C          63.5823   85.5712   13.3619 C.2     1  UNL1        0.1397
      2 C          63.6861   87.0481   13.1214 C.2     1  UNL1        0.1355
      3 N          62.8599   87.6931   12.0484 N.pl3   1  UNL1       -0.1998
      4 C          61.9300   86.8612   11.2158 C.2     1  UNL1        0.3442
      5 N          61.8263   85.3843   11.4563 N.2     1  UNL1       -0.0580
      6 C          62.6524   84.7393   12.5294 C.3     1  UNL1        0.2695
      7 H          62.9280   88.6625   11.8905 H       1  UNL1        0.2983
      8 C          62.5486   83.2623   12.7699 C.ar    1  UNL1        0.0415
      9 C          61.8192   82.7482   13.9755 C.ar    1  UNL1        0.0034
     10 C          61.7154   81.2713   14.2161 C.ar    1  UNL1        0.0295
     11 C          62.3411   80.3084   13.2509 C.ar    1  UNL1        0.1410
     12 F          62.2373   78.8314   13.4914 F       1  UNL1       -0.2041
     13 C          63.0705   80.8225   12.0452 C.ar    1  UNL1        0.0408
     14 C          63.1743   82.2995   11.8047 C.ar    1  UNL1        0.0603
     15 CL         63.9037   82.8136   10.5990 Cl      1  UNL1       -0.0824
     16 C          61.1039   87.5062   10.1428 C.ar    1  UNL1        0.1931
     17 N          60.2449   86.7916    9.1420 N.ar    1  UNL1       -0.2297
     18 C          59.6018   87.8228    8.2628 C.ar    1  UNL1        0.1067
     19 C          60.0633   89.1748    8.7201 C.ar    1  UNL1        0.0577
     20 S          60.9916   88.9791    9.8820 S.2     1  UNL1       -0.0586
     21 C          64.4085   84.9262   14.4350 C.2     1  UNL1        0.3448
     22 O          65.6828   84.2202   14.0779 O.2     1  UNL1       -0.2450
     23 C          62.4966   85.0213   16.1916 C.3     1  UNL1        0.2559
     24 O          63.9603   84.9872   15.8651 O.3     1  UNL1       -0.4414
     25 C          64.6160   87.8801   13.9540 C.3     1  UNL1        0.1407
     26 N          64.0618   88.8520   14.9531 N.3     1  UNL1       -0.2584
     27 C          63.4648   88.3513   16.2349 C.3     1  UNL1        0.1052
     28 C          62.9106   89.3232   17.2341 C.3     1  UNL1        0.1595
     29 O          62.9533   90.7957   16.9515 O.3     1  UNL1       -0.3505
     30 C          63.5503   91.2964   15.6697 C.3     1  UNL1        0.1637
     31 C          64.1045   90.3245   14.6705 C.3     1  UNL1        0.1247
     32 C          64.7015   90.8252   13.3887 C.2     1  UNL1        0.0673
     33 O          63.9331   90.7045   12.1061 O.co2   1  UNL1       -0.5477
     34 O          66.0668   91.4465   13.3896 O.co2   1  UNL1       -0.5477
@<TRIPOS>UNITY_ATOM_ATTR
33 1
charge -1
@<TRIPOS>BOND
     1    23    24    1
     2    24    21    1
     3    21    22    2
     4    21     1    1
     5     1     2    2
     6     2    25    1
     7    25    26    1
     8    26    27    1
     9    27    28    1
    10    28    29    1
    11    29    30    1
    12    30    31    1
    13    31    32    1
    14    32    33   ar
    15    32    34   ar
    16     2     3    1
    17     3     4    1
    18     4    16    1
    19    16    17   ar
    20    17    18   ar
    21    18    19   ar
    22    19    20   ar
    23     4     5    2
    24     5     6    1
    25     6     8    1
    26     8     9   ar
    27     9    10   ar
    28    10    11   ar
    29    11    12    1
    30    11    13   ar
    31    13    14   ar
    32    14    15    1
    33     6     1    1
    34    14     8   ar
    35    31    26    1
    36    20    16   ar
    37     3     7    1
@<TRIPOS>MOLECULE
*****
 34 37 0 0 0
SMALL
GASTEIGER

@<TRIPOS>ATOM
      1 C          63.7694   85.7435   13.5643 C.2     1  UNL1        0.1397
      2 C          63.8511   87.2367   13.6805 C.2     1  UNL1        0.1355
      3 N          63.0844   88.1062   12.7286 N.pl3   1  UNL1       -0.1998
      4 C          62.2358   87.4825   11.6605 C.2     1  UNL1        0.3442
      5 N          62.1541   85.9893   11.5443 N.2     1  UNL1       -0.0580
      6 C          62.9208   85.1198   12.4961 C.3     1  UNL1        0.2695
      7 H          63.1381   89.0863   12.8049 H       1  UNL1        0.2983
      8 C          62.8390   83.6265   12.3799 C.ar    1  UNL1        0.0415
      9 C          62.1945   82.8235   13.4706 C.ar    1  UNL1        0.0034
     10 C          62.1126   81.3303   13.3544 C.ar    1  UNL1        0.0295
     11 C          62.6754   80.6400   12.1474 C.ar    1  UNL1        0.1410
     12 F          62.5936   79.1468   12.0312 F       1  UNL1       -0.2041
     13 C          63.3200   81.4430   11.0566 C.ar    1  UNL1        0.0408
     14 C          63.4018   82.9363   11.1729 C.ar    1  UNL1        0.0603
     15 CL         64.0464   83.7392   10.0822 Cl      1  UNL1       -0.0824
     16 C          61.4691   88.3520   10.7086 C.ar    1  UNL1        0.1931
     17 N          61.0898   89.7856   10.9343 N.ar    1  UNL1       -0.2297
     18 C          60.3333   90.2602    9.7291 C.ar    1  UNL1        0.1067
     19 C          60.2450   89.1198    8.7586 C.ar    1  UNL1        0.0577
     20 S          60.9469   87.9405    9.3640 S.2     1  UNL1       -0.0586
     21 C          64.5361   84.8740   14.5161 C.2     1  UNL1        0.3448
     22 O          65.9635   84.5182   14.2232 O.2     1  UNL1       -0.2450
     23 C          62.6476   85.0382   16.2928 C.3     1  UNL1        0.2559
     24 O          63.8755   84.3604   15.7610 O.3     1  UNL1       -0.4414
     25 C          64.6997   87.8606   14.7486 C.3     1  UNL1        0.1407
     26 N          64.6899   89.3481   14.9409 N.3     1  UNL1       -0.2584
     27 C          65.6827   90.2051   14.2130 C.3     1  UNL1        0.1052
     28 C          65.6728   91.6927   14.4053 C.3     1  UNL1        0.1595
     29 O          64.6702   92.3233   15.3256 O.3     1  UNL1       -0.3505
     30 C          63.6774   91.4664   16.0536 C.3     1  UNL1        0.1637
     31 C          63.6872   89.9788   15.8613 C.3     1  UNL1        0.1247
     32 C          62.6944   89.1219   16.5892 C.2     1  UNL1        0.0673
     33 O          63.1577   88.1903   17.6698 O.co2   1  UNL1       -0.5477
     34 O          61.2383   89.1965   16.2367 O.co2   1  UNL1       -0.5477
@<TRIPOS>UNITY_ATOM_ATTR
33 1
charge -1
@<TRIPOS>BOND
     1    23    24    1
     2    24    21    1
     3    21    22    2
     4    21     1    1
     5     1     2    2
     6     2    25    1
     7    25    26    1
     8    26    27    1
     9    27    28    1
    10    28    29    1
    11    29    30    1
    12    30    31    1
    13    31    32    1
    14    32    33   ar
    15    32    34   ar
    16     2     3    1
    17     3     4    1
    18     4    16    1
    19    16    17   ar
    20    17    18   ar
    21    18    19   ar
    22    19    20   ar
    23     4     5    2
    24     5     6    1
    25     6     8    1
    26     8     9   ar
    27     9    10   ar
    28    10    11   ar
    29    11    12    1
    30    11    13   ar
    31    13    14   ar
    32    14    15    1
    33     6     1    1
    34    14     8   ar
    35    31    26    1
    36    20    16   ar
    37     3     7    1
@<TRIPOS>MOLECULE
*****
 34 37 0 0 0
SMALL
GASTEIGER

@<TRIPOS>ATOM
      1 C          63.2925   86.7270   13.0738 C.2     1  UNL1        0.1397
      2 C          63.1196   88.1386   12.5968 C.2     1  UNL1        0.1355
      3 N          62.2740   88.4247   11.3914 N.pl3   1  UNL1       -0.1998
      4 C          61.6013   87.2992   10.6629 C.2     1  UNL1        0.3442
      5 N          61.7742   85.8876   11.1399 N.2     1  UNL1       -0.0580
      6 C          62.6198   85.6016   12.3453 C.3     1  UNL1        0.2695
      7 H          62.1605   89.3512   11.0783 H       1  UNL1        0.2983
      8 C          62.7927   84.1899   12.8223 C.ar    1  UNL1        0.0415
      9 C          62.1710   83.7539   14.1159 C.ar    1  UNL1        0.0034
     10 C          62.3439   82.3423   14.5928 C.ar    1  UNL1        0.0295
     11 C          63.1384   81.3667   13.7762 C.ar    1  UNL1        0.1410
     12 F          63.3113   79.9551   14.2532 F       1  UNL1       -0.2041
     13 C          63.7601   81.8027   12.4826 C.ar    1  UNL1        0.0408
     14 C          63.5872   83.2143   12.0056 C.ar    1  UNL1        0.0603
     15 CL         64.2089   83.6503   10.7120 Cl      1  UNL1       -0.0824
     16 C          60.7556   87.5853    9.4575 C.ar    1  UNL1        0.1931
     17 N          60.4192   88.9442    8.9188 N.ar    1  UNL1       -0.2297
     18 C          59.5536   88.7615    7.7075 C.ar    1  UNL1        0.1067
     19 C          59.3551   87.2896    7.4974 C.ar    1  UNL1        0.0577
     20 S          60.0979   86.5627    8.5790 S.2     1  UNL1       -0.0586
     21 C          64.1381   86.4409   14.2792 C.2     1  UNL1        0.3448
     22 O          65.3662   85.5896   14.1489 O.2     1  UNL1       -0.2450
     23 C          63.2951   86.0926   16.7119 C.3     1  UNL1        0.2559
     24 O          63.7557   87.0062   15.6149 O.3     1  UNL1       -0.4414
     25 C          63.7924   89.2642   13.3253 C.3     1  UNL1        0.1407
     26 N          64.1843   90.5085   12.5851 N.3     1  UNL1       -0.2584
     27 C          63.7313   90.7135   11.1699 C.3     1  UNL1        0.1052
     28 C          64.1233   91.9579   10.4297 C.3     1  UNL1        0.1595
     29 O          64.9683   92.9972   11.1046 O.3     1  UNL1       -0.3505
     30 C          65.4214   92.7922   12.5198 C.3     1  UNL1        0.1637
     31 C          65.0294   91.5479   13.2600 C.3     1  UNL1        0.1247
     32 C          65.4825   91.3429   14.6752 C.2     1  UNL1        0.0673
     33 O          64.5068   91.4944   15.8045 O.co2   1  UNL1       -0.5477
     34 O          66.9111   90.9865   14.9611 O.co2   1  UNL1       -0.5477
@<TRIPOS>UNITY_ATOM_ATTR
33 1
charge -1
@<TRIPOS>BOND
     1    23    24    1
     2    24    21    1
     3    21    22    2
     4    21     1    1
     5     1     2    2
     6     2    25    1
     7    25    26    1
     8    26    27    1
     9    27    28    1
    10    28    29    1
    11    29    30    1
    12    30    31    1
    13    31    32    1
    14    32    33   ar
    15    32    34   ar
    16     2     3    1
    17     3     4    1
    18     4    16    1
    19    16    17   ar
    20    17    18   ar
    21    18    19   ar
    22    19    20   ar
    23     4     5    2
    24     5     6    1
    25     6     8    1
    26     8     9   ar
    27     9    10   ar
    28    10    11   ar
    29    11    12    1
    30    11    13   ar
    31    13    14   ar
    32    14    15    1
    33     6     1    1
    34    14     8   ar
    35    31    26    1
    36    20    16   ar
    37     3     7    1
@<TRIPOS>MOLECULE
*****
 34 37 0 0 0
SMALL
GASTEIGER

@<TRIPOS>ATOM
      1 C          64.6314   90.9188   12.9844 C.2     1  UNL1        0.1397
      2 C          63.5061   90.0053   12.5983 C.2     1  UNL1        0.1355
      3 N          63.1626   88.8304   13.4653 N.pl3   1  UNL1       -0.1998
      4 C          63.9443   88.5691   14.7185 C.2     1  UNL1        0.3442
      5 N          65.0696   89.4826   15.1046 N.2     1  UNL1       -0.0580
      6 C          65.4132   90.6574   14.2376 C.3     1  UNL1        0.2695
      7 H          62.4240   88.2309   13.2118 H       1  UNL1        0.2983
      8 C          66.5385   91.5710   14.6239 C.ar    1  UNL1        0.0415
      9 C          67.8165   91.5603   13.8385 C.ar    1  UNL1        0.0034
     10 C          68.9418   92.4737   14.2247 C.ar    1  UNL1        0.0295
     11 C          68.7892   93.3979   15.3963 C.ar    1  UNL1        0.1410
     12 F          69.9146   94.3114   15.7825 F       1  UNL1       -0.2041
     13 C          67.5113   93.4087   16.1817 C.ar    1  UNL1        0.0408
     14 C          66.3859   92.4951   15.7954 C.ar    1  UNL1        0.0603
     15 CL         65.1080   92.5059   16.5808 Cl      1  UNL1       -0.0824
     16 C          63.6008   87.3942   15.5855 C.ar    1  UNL1        0.1931
     17 N          62.7979   87.4378   16.8517 N.ar    1  UNL1       -0.2297
     18 C          62.7007   86.0400   17.3873 C.ar    1  UNL1        0.1067
     19 C          63.4435   85.1326   16.4520 C.ar    1  UNL1        0.0577
     20 S          63.9998   85.9695   15.3384 S.2     1  UNL1       -0.0586
     21 C          64.9750   92.0936   12.1174 C.2     1  UNL1        0.3448
     22 O          64.9558   91.9547   10.6240 O.2     1  UNL1       -0.2450
     23 C          66.1869   94.3883   11.9909 C.3     1  UNL1        0.2559
     24 O          65.3377   93.4074   12.7438 O.3     1  UNL1       -0.4414
     25 C          62.7243   90.2666   11.3450 C.3     1  UNL1        0.1407
     26 N          61.9675   89.1513   10.6869 N.3     1  UNL1       -0.2584
     27 C          62.6682   88.2299    9.7330 C.3     1  UNL1        0.1052
     28 C          61.9113   87.1146    9.0749 C.3     1  UNL1        0.1595
     29 O          60.4536   86.9206    9.3707 O.3     1  UNL1       -0.3505
     30 C          59.7528   87.8420   10.3247 C.3     1  UNL1        0.1637
     31 C          60.5097   88.9573   10.9827 C.3     1  UNL1        0.1247
     32 C          59.8089   89.8786   11.9367 C.2     1  UNL1        0.0673
     33 O          59.8423   89.5995   13.4102 O.co2   1  UNL1       -0.5477
     34 O          59.0748   91.0791   11.4172 O.co2   1  UNL1       -0.5477
@<TRIPOS>UNITY_ATOM_ATTR
33 1
charge -1
@<TRIPOS>BOND
     1    23    24    1
     2    24    21    1
     3    21    22    2
     4    21     1    1
     5     1     2    2
     6     2    25    1
     7    25    26    1
     8    26    27    1
     9    27    28    1
    10    28    29    1
    11    29    30    1
    12    30    31    1
    13    31    32    1
    14    32    33   ar
    15    32    34   ar
    16     2     3    1
    17     3     4    1
    18     4    16    1
    19    16    17   ar
    20    17    18   ar
    21    18    19   ar
    22    19    20   ar
    23     4     5    2
    24     5     6    1
    25     6     8    1
    26     8     9   ar
    27     9    10   ar
    28    10    11   ar
    29    11    12    1
    30    11    13   ar
    31    13    14   ar
    32    14    15    1
    33     6     1    1
    34    14     8   ar
    35    31    26    1
    36    20    16   ar
    37     3     7    1
@<TRIPOS>MOLECULE
*****
 34 37 0 0 0
SMALL
GASTEIGER

@<TRIPOS>ATOM
      1 C          63.7344   87.0030   13.8358 C.2     1  UNL1        0.1397
      2 C          63.1607   85.8702   13.0373 C.2     1  UNL1        0.1355
      3 N          62.3513   86.1544   11.8068 N.pl3   1  UNL1       -0.1998
      4 C          62.1157   87.5713   11.3747 C.2     1  UNL1        0.3442
      5 N          62.6894   88.7041   12.1732 N.2     1  UNL1       -0.0580
      6 C          63.4988   88.4200   13.4037 C.3     1  UNL1        0.2695
      7 H          61.9748   85.4109   11.2827 H       1  UNL1        0.2983
      8 C          64.0725   89.5528   14.2022 C.ar    1  UNL1        0.0415
      9 C          65.3262   90.2356   13.7416 C.ar    1  UNL1        0.0034
     10 C          65.8999   91.3684   14.5400 C.ar    1  UNL1        0.0295
     11 C          65.2200   91.8185   15.7991 C.ar    1  UNL1        0.1410
     12 F          65.7937   92.9514   16.5975 F       1  UNL1       -0.2041
     13 C          63.9663   91.1358   16.2597 C.ar    1  UNL1        0.0408
     14 C          63.3925   90.0029   15.4612 C.ar    1  UNL1        0.0603
     15 CL         62.1389   89.3201   15.9218 Cl      1  UNL1       -0.0824
     16 C          61.3064   87.8555   10.1442 C.ar    1  UNL1        0.1931
     17 N          60.9086   89.2127    9.6444 N.ar    1  UNL1       -0.2297
     18 C          60.1091   89.0283    8.3887 C.ar    1  UNL1        0.1067
     19 C          60.0127   87.5572    8.1124 C.ar    1  UNL1        0.0577
     20 S          60.7527   86.8323    9.1973 S.2     1  UNL1       -0.0586
     21 C          64.5437   86.7189   15.0663 C.2     1  UNL1        0.3448
     22 O          65.9837   86.3180   14.9409 O.2     1  UNL1       -0.2450
     23 C          62.8711   85.8462   16.8525 C.3     1  UNL1        0.2559
     24 O          63.9131   86.8356   16.4223 O.3     1  UNL1       -0.4414
     25 C          63.3963   84.4532   13.4694 C.3     1  UNL1        0.1407
     26 N          63.3985   83.3498   12.4533 N.3     1  UNL1       -0.2584
     27 C          64.0652   83.5546   11.1253 C.3     1  UNL1        0.1052
     28 C          64.0674   82.4511   10.1091 C.3     1  UNL1        0.1595
     29 O          63.4029   81.1430   10.4211 O.3     1  UNL1       -0.3505
     30 C          62.7362   80.9383   11.7491 C.3     1  UNL1        0.1637
     31 C          62.7340   82.0416   12.7652 C.3     1  UNL1        0.1247
     32 C          62.0674   81.8369   14.0932 C.2     1  UNL1        0.0673
     33 O          60.7788   81.0735   14.1758 O.co2   1  UNL1       -0.5477
     34 O          62.6892   82.3956   15.3386 O.co2   1  UNL1       -0.5477
@<TRIPOS>UNITY_ATOM_ATTR
33 1
charge -1
@<TRIPOS>BOND
     1    23    24    1
     2    24    21    1
     3    21    22    2
     4    21     1    1
     5     1     2    2
     6     2    25    1
     7    25    26    1
     8    26    27    1
     9    27    28    1
    10    28    29    1
    11    29    30    1
    12    30    31    1
    13    31    32    1
    14    32    33   ar
    15    32    34   ar
    16     2     3    1
    17     3     4    1
    18     4    16    1
    19    16    17   ar
    20    17    18   ar
    21    18    19   ar
    22    19    20   ar
    23     4     5    2
    24     5     6    1
    25     6     8    1
    26     8     9   ar
    27     9    10   ar
    28    10    11   ar
    29    11    12    1
    30    11    13   ar
    31    13    14   ar
    32    14    15    1
    33     6     1    1
    34    14     8   ar
    35    31    26    1
    36    20    16   ar
    37     3     7    1
@<TRIPOS>MOLECULE
*****
 34 37 0 0 0
SMALL
GASTEIGER

@<TRIPOS>ATOM
      1 C          62.8973   88.6717   12.0219 C.2     1  UNL1        0.1397
      2 C          62.3768   87.4840   11.2679 C.2     1  UNL1        0.1355
      3 N          62.5850   86.1011   11.8104 N.pl3   1  UNL1       -0.1998
      4 C          63.3136   85.9059   13.1069 C.2     1  UNL1        0.3442
      5 N          63.8341   87.0936   13.8609 N.2     1  UNL1       -0.0580
      6 C          63.6259   88.4765   13.3184 C.3     1  UNL1        0.2695
      7 H          62.2433   85.3216   11.3156 H       1  UNL1        0.2983
      8 C          64.1465   89.6642   14.0724 C.ar    1  UNL1        0.0415
      9 C          65.1976   90.5406   13.4583 C.ar    1  UNL1        0.0034
     10 C          65.7181   91.7282   14.2123 C.ar    1  UNL1        0.0295
     11 C          65.1876   92.0395   15.5804 C.ar    1  UNL1        0.1410
     12 F          65.7081   93.2271   16.3344 F       1  UNL1       -0.2041
     13 C          64.1365   91.1631   16.1945 C.ar    1  UNL1        0.0408
     14 C          63.6159   89.9754   15.4405 C.ar    1  UNL1        0.0603
     15 CL         62.5648   89.0990   16.0545 Cl      1  UNL1       -0.0824
     16 C          63.5217   84.5231   13.6495 C.ar    1  UNL1        0.1931
     17 N          63.6249   83.2646   12.8398 N.ar    1  UNL1       -0.2297
     18 C          63.8301   82.1196   13.7869 C.ar    1  UNL1        0.1067
     19 C          63.8539   82.6704   15.1818 C.ar    1  UNL1        0.0577
     20 S          63.6633   84.1558   15.0969 S.2     1  UNL1       -0.0586
     21 C          62.6892   90.0546   11.4793 C.2     1  UNL1        0.3448
     22 O          63.7030   90.6570   10.5525 O.2     1  UNL1       -0.2450
     23 C          60.1476   90.5272   11.2203 C.3     1  UNL1        0.2559
     24 O          61.4672   90.8350   11.8637 O.3     1  UNL1       -0.4414
     25 C          61.6482   87.6792    9.9713 C.3     1  UNL1        0.1407
     26 N          61.7698   86.6560    8.8813 N.3     1  UNL1       -0.2584
     27 C          62.9737   85.7633    8.8215 C.3     1  UNL1        0.1052
     28 C          63.0952   84.7401    7.7314 C.3     1  UNL1        0.1595
     29 O          62.0129   84.6096    6.7011 O.3     1  UNL1       -0.3505
     30 C          60.8090   85.5024    6.7608 C.3     1  UNL1        0.1637
     31 C          60.6874   86.5256    7.8509 C.3     1  UNL1        0.1247
     32 C          59.4835   87.4183    7.9107 C.2     1  UNL1        0.0673
     33 O          59.6368   88.8981    7.7182 O.co2   1  UNL1       -0.5477
     34 O          58.1264   86.8314    8.1629 O.co2   1  UNL1       -0.5477
@<TRIPOS>UNITY_ATOM_ATTR
33 1
charge -1
@<TRIPOS>BOND
     1    23    24    1
     2    24    21    1
     3    21    22    2
     4    21     1    1
     5     1     2    2
     6     2    25    1
     7    25    26    1
     8    26    27    1
     9    27    28    1
    10    28    29    1
    11    29    30    1
    12    30    31    1
    13    31    32    1
    14    32    33   ar
    15    32    34   ar
    16     2     3    1
    17     3     4    1
    18     4    16    1
    19    16    17   ar
    20    17    18   ar
    21    18    19   ar
    22    19    20   ar
    23     4     5    2
    24     5     6    1
    25     6     8    1
    26     8     9   ar
    27     9    10   ar
    28    10    11   ar
    29    11    12    1
    30    11    13   ar
    31    13    14   ar
    32    14    15    1
    33     6     1    1
    34    14     8   ar
    35    31    26    1
    36    20    16   ar
    37     3     7    1
@<TRIPOS>MOLECULE
*****
 34 37 0 0 0
SMALL
GASTEIGER

@<TRIPOS>ATOM
      1 C          62.3554   89.1223   11.4189 C.2     1  UNL1        0.1397
      2 C          63.1592   89.4977   12.6284 C.2     1  UNL1        0.1355
      3 N          63.6820   88.4297   13.5426 N.pl3   1  UNL1       -0.1998
      4 C          63.4010   86.9861   13.2475 C.2     1  UNL1        0.3442
      5 N          62.5971   86.6107   12.0380 N.2     1  UNL1       -0.0580
      6 C          62.0743   87.6787   11.1237 C.3     1  UNL1        0.2695
      7 H          64.2096   88.6761   14.3364 H       1  UNL1        0.2983
      8 C          61.2705   87.3032    9.9142 C.ar    1  UNL1        0.0415
      9 C          59.8828   87.8449    9.7382 C.ar    1  UNL1        0.0034
     10 C          59.0789   87.4695    8.5288 C.ar    1  UNL1        0.0295
     11 C          59.6627   86.5522    7.4953 C.ar    1  UNL1        0.1410
     12 F          58.8588   86.1767    6.2859 F       1  UNL1       -0.2041
     13 C          61.0503   86.0105    7.6714 C.ar    1  UNL1        0.0408
     14 C          61.8542   86.3860    8.8809 C.ar    1  UNL1        0.0603
     15 CL         63.2419   85.8443    9.0569 Cl      1  UNL1       -0.0824
     16 C          63.9238   85.9181   14.1617 C.ar    1  UNL1        0.1931
     17 N          64.1622   86.0585   15.6360 N.ar    1  UNL1       -0.2297
     18 C          64.6857   84.7492   16.1477 C.ar    1  UNL1        0.1067
     19 C          64.7709   83.7996   14.9897 C.ar    1  UNL1        0.0577
     20 S          64.3000   84.5220   13.7623 S.2     1  UNL1       -0.0586
     21 C          61.8326   90.1903   10.5046 C.2     1  UNL1        0.3448
     22 O          62.7282   90.7882    9.4604 O.2     1  UNL1       -0.2450
     23 C          59.6200   90.3187   11.8603 C.3     1  UNL1        0.2559
     24 O          60.4142   90.6606   10.6346 O.3     1  UNL1       -0.4414
     25 C          63.4403   90.9413   12.9236 C.3     1  UNL1        0.1407
     26 N          64.8043   91.3605   13.3860 N.3     1  UNL1       -0.2584
     27 C          65.8639   91.7045   12.3815 C.3     1  UNL1        0.1052
     28 C          67.2279   92.1237   12.8440 C.3     1  UNL1        0.1595
     29 O          67.5322   92.1989   14.3109 O.3     1  UNL1       -0.3505
     30 C          66.4726   91.8550   15.3153 C.3     1  UNL1        0.1637
     31 C          65.1087   91.4358   14.8529 C.3     1  UNL1        0.1247
     32 C          64.0490   91.0918   15.8573 C.2     1  UNL1        0.0673
     33 O          63.3918   92.1782   16.6560 O.co2   1  UNL1       -0.5477
     34 O          63.6467   89.6616   16.0632 O.co2   1  UNL1       -0.5477
@<TRIPOS>UNITY_ATOM_ATTR
33 1
charge -1
@<TRIPOS>BOND
     1    23    24    1
     2    24    21    1
     3    21    22    2
     4    21     1    1
     5     1     2    2
     6     2    25    1
     7    25    26    1
     8    26    27    1
     9    27    28    1
    10    28    29    1
    11    29    30    1
    12    30    31    1
    13    31    32    1
    14    32    33   ar
    15    32    34   ar
    16     2     3    1
    17     3     4    1
    18     4    16    1
    19    16    17   ar
    20    17    18   ar
    21    18    19   ar
    22    19    20   ar
    23     4     5    2
    24     5     6    1
    25     6     8    1
    26     8     9   ar
    27     9    10   ar
    28    10    11   ar
    29    11    12    1
    30    11    13   ar
    31    13    14   ar
    32    14    15    1
    33     6     1    1
    34    14     8   ar
    35    31    26    1
    36    20    16   ar
    37     3     7    1
@<TRIPOS>MOLECULE
*****
 34 37 0 0 0
SMALL
GASTEIGER

@<TRIPOS>ATOM
      1 C          62.6395   87.0567   11.9312 C.2     1  UNL1        0.1397
      2 C          63.4284   86.4189   13.0361 C.2     1  UNL1        0.1355
      3 N          63.4556   84.9254   13.1728 N.pl3   1  UNL1       -0.1998
      4 C          62.6939   84.0697   12.2046 C.2     1  UNL1        0.3442
      5 N          61.9049   84.7074   11.0997 N.2     1  UNL1       -0.0580
      6 C          61.8777   86.2009   10.9630 C.3     1  UNL1        0.2695
      7 H          63.9734   84.5068   13.8979 H       1  UNL1        0.2983
      8 C          61.0887   86.8387    9.8581 C.ar    1  UNL1        0.0415
      9 C          60.0570   87.8796   10.1775 C.ar    1  UNL1        0.0034
     10 C          59.2680   88.5173    9.0726 C.ar    1  UNL1        0.0295
     11 C          59.5107   88.1142    7.6483 C.ar    1  UNL1        0.1410
     12 F          58.7218   88.7520    6.5434 F       1  UNL1       -0.2041
     13 C          60.5425   87.0733    7.3289 C.ar    1  UNL1        0.0408
     14 C          61.3315   86.4356    8.4339 C.ar    1  UNL1        0.0603
     15 CL         62.3633   85.3947    8.1145 Cl      1  UNL1       -0.0824
     16 C          62.7210   82.5762   12.3413 C.ar    1  UNL1        0.1931
     17 N          63.0515   81.5971   11.2540 N.ar    1  UNL1       -0.2297
     18 C          62.9572   80.2153   11.8300 C.ar    1  UNL1        0.1067
     19 C          62.5685   80.3404   13.2734 C.ar    1  UNL1        0.0577
     20 S          62.4226   81.7994   13.5893 S.2     1  UNL1       -0.0586
     21 C          62.6123   88.5502   11.7945 C.2     1  UNL1        0.3448
     22 O          61.9014   89.3843   12.8186 O.2     1  UNL1       -0.2450
     23 C          62.7843   90.5172   10.1060 C.3     1  UNL1        0.2559
     24 O          63.2960   89.2096   10.6336 O.3     1  UNL1       -0.4414
     25 C          64.1902   87.2747   14.0043 C.3     1  UNL1        0.1407
     26 N          63.7213   87.4011   15.4235 N.3     1  UNL1       -0.2584
     27 C          63.3722   86.1726   16.2103 C.3     1  UNL1        0.1052
     28 C          62.9033   86.2991   17.6295 C.3     1  UNL1        0.1595
     29 O          62.7834   87.6540   18.2619 O.3     1  UNL1       -0.3505
     30 C          63.1325   88.8824   17.4751 C.3     1  UNL1        0.1637
     31 C          63.6014   88.7560   16.0559 C.3     1  UNL1        0.1247
     32 C          63.9505   89.9845   15.2691 C.2     1  UNL1        0.0673
     33 O          63.2994   91.2954   15.5972 O.co2   1  UNL1       -0.5477
     34 O          64.9506   89.9020   14.1542 O.co2   1  UNL1       -0.5477
@<TRIPOS>UNITY_ATOM_ATTR
33 1
charge -1
@<TRIPOS>BOND
     1    23    24    1
     2    24    21    1
     3    21    22    2
     4    21     1    1
     5     1     2    2
     6     2    25    1
     7    25    26    1
     8    26    27    1
     9    27    28    1
    10    28    29    1
    11    29    30    1
    12    30    31    1
    13    31    32    1
    14    32    33   ar
    15    32    34   ar
    16     2     3    1
    17     3     4    1
    18     4    16    1
    19    16    17   ar
    20    17    18   ar
    21    18    19   ar
    22    19    20   ar
    23     4     5    2
    24     5     6    1
    25     6     8    1
    26     8     9   ar
    27     9    10   ar
    28    10    11   ar
    29    11    12    1
    30    11    13   ar
    31    13    14   ar
    32    14    15    1
    33     6     1    1
    34    14     8   ar
    35    31    26    1
    36    20    16   ar
    37     3     7    1
@<TRIPOS>MOLECULE
*****
 34 37 0 0 0
SMALL
GASTEIGER

@<TRIPOS>ATOM
      1 C          64.0342   86.8912   13.9451 C.2     1  UNL1        0.1397
      2 C          63.6440   85.7373   13.0698 C.2     1  UNL1        0.1355
      3 N          62.7805   85.9680   11.8652 N.pl3   1  UNL1       -0.1998
      4 C          62.3072   87.3527   11.5358 C.2     1  UNL1        0.3442
      5 N          62.6974   88.5067   12.4111 N.2     1  UNL1       -0.0580
      6 C          63.5609   88.2759   13.6157 C.3     1  UNL1        0.2695
      7 H          62.5244   85.2106   11.2908 H       1  UNL1        0.2983
      8 C          63.9511   89.4300   14.4909 C.ar    1  UNL1        0.0415
      9 C          65.1194   90.2933   14.1171 C.ar    1  UNL1        0.0034
     10 C          65.5096   91.4473   14.9923 C.ar    1  UNL1        0.0295
     11 C          64.7315   91.7380   16.2413 C.ar    1  UNL1        0.1410
     12 F          65.1217   92.8920   17.1165 F       1  UNL1       -0.2041
     13 C          63.5632   90.8747   16.6152 C.ar    1  UNL1        0.0408
     14 C          63.1730   89.7207   15.7399 C.ar    1  UNL1        0.0603
     15 CL         62.0047   88.8573   16.1137 Cl      1  UNL1       -0.0824
     16 C          61.4436   87.5834   10.3312 C.ar    1  UNL1        0.1931
     17 N          61.0139   88.9175    9.7969 N.ar    1  UNL1       -0.2297
     18 C          60.1629   88.6792    8.5849 C.ar    1  UNL1        0.1067
     19 C          60.0667   87.1978    8.3701 C.ar    1  UNL1        0.0577
     20 S          60.8582   86.5206    9.4494 S.2     1  UNL1       -0.0586
     21 C          64.8978   86.6605   15.1497 C.2     1  UNL1        0.3448
     22 O          66.3812   86.5057   14.9905 O.2     1  UNL1       -0.2450
     23 C          63.1160   85.6682   16.7592 C.3     1  UNL1        0.2559
     24 O          64.2779   86.5846   16.5134 O.3     1  UNL1       -0.4414
     25 C          64.1174   84.3525   13.3992 C.3     1  UNL1        0.1407
     26 N          63.1684   83.1944   13.3095 N.3     1  UNL1       -0.2584
     27 C          62.4003   82.7585   14.5220 C.3     1  UNL1        0.1052
     28 C          61.4512   81.6003   14.4323 C.3     1  UNL1        0.1595
     29 O          61.2703   80.8781   13.1302 O.3     1  UNL1       -0.3505
     30 C          62.0384   81.3139   11.9177 C.3     1  UNL1        0.1637
     31 C          62.9874   82.4720   12.0074 C.3     1  UNL1        0.1247
     32 C          63.7555   82.9079   10.7949 C.2     1  UNL1        0.0673
     33 O          63.2194   84.0029    9.9211 O.co2   1  UNL1       -0.5477
     34 O          65.0596   82.2487   10.4563 O.co2   1  UNL1       -0.5477
@<TRIPOS>UNITY_ATOM_ATTR
33 1
charge -1
@<TRIPOS>BOND
     1    23    24    1
     2    24    21    1
     3    21    22    2
     4    21     1    1
     5     1     2    2
     6     2    25    1
     7    25    26    1
     8    26    27    1
     9    27    28    1
    10    28    29    1
    11    29    30    1
    12    30    31    1
    13    31    32    1
    14    32    33   ar
    15    32    34   ar
    16     2     3    1
    17     3     4    1
    18     4    16    1
    19    16    17   ar
    20    17    18   ar
    21    18    19   ar
    22    19    20   ar
    23     4     5    2
    24     5     6    1
    25     6     8    1
    26     8     9   ar
    27     9    10   ar
    28    10    11   ar
    29    11    12    1
    30    11    13   ar
    31    13    14   ar
    32    14    15    1
    33     6     1    1
    34    14     8   ar
    35    31    26    1
    36    20    16   ar
    37     3     7    1
