@<TRIPOS>MOLECULE
*****
 22 24 0 0 0
SMALL
GASTEIGER

@<TRIPOS>ATOM
      1 C          66.1356   92.6116   11.9949 C.2     1  UNL1        0.2536
      2 O          67.2227   91.9938   12.8233 O.2     1  UNL1       -0.2697
      3 N          64.7134   92.1698   12.1740 N.am    1  UNL1       -0.2657
      4 H          63.9998   92.5753   11.6303 H       1  UNL1        0.1566
      5 C          67.4757   96.8500    7.9650 C.3     1  UNL1        0.0737
      6 C          67.1407   95.7904    8.9725 C.ar    1  UNL1        0.1396
      7 N          66.4949   96.1688   10.2723 N.ar    1  UNL1       -0.2290
      8 C          66.1598   95.1092   11.2798 C.ar    1  UNL1        0.1063
      9 C          66.4706   93.6712   10.9874 C.ar    1  UNL1        0.0919
     10 C          67.1164   93.2928    9.6876 C.ar    1  UNL1        0.1063
     11 N          67.4515   94.3524    8.6801 N.ar    1  UNL1       -0.2290
     12 C          64.3783   91.1102   13.1815 C.ar    1  UNL1        0.1344
     13 C          64.1391   89.6986   12.7339 C.ar    1  UNL1        0.0345
     14 C          63.8041   88.6390   13.7414 C.ar    1  UNL1        0.0044
     15 C          63.7083   88.9910   15.1964 C.ar    1  UNL1        0.0198
     16 C          63.9474   90.4026   15.6439 C.ar    1  UNL1        0.1003
     17 N          64.2825   91.4622   14.6364 N.ar    1  UNL1       -0.2290
     18 C          63.3732   87.9314   16.2039 C.ar    1  UNL1        0.0085
     19 C          62.8874   88.1674   17.6033 C.ar    1  UNL1        0.0075
     20 C          62.6791   86.8317   18.2531 C.ar    1  UNL1        0.0355
     21 S          63.0362   85.7701   17.2554 S.2     1  UNL1       -0.0859
     22 C          63.4652   86.4497   15.9888 C.ar    1  UNL1        0.0355
@<TRIPOS>BOND
     1     5     6    1
     2     6     7   ar
     3     7     8   ar
     4     8     9   ar
     5     9     1    1
     6     1     2    2
     7     1     3   am
     8     3    12    1
     9    12    13   ar
    10    13    14   ar
    11    14    15   ar
    12    15    18    1
    13    18    19   ar
    14    19    20   ar
    15    20    21   ar
    16    21    22   ar
    17    15    16   ar
    18    16    17   ar
    19     9    10   ar
    20    10    11   ar
    21    11     6   ar
    22    17    12   ar
    23    22    18   ar
    24     3     4    1
@<TRIPOS>MOLECULE
*****
 22 24 0 0 0
SMALL
GASTEIGER

@<TRIPOS>ATOM
      1 C          65.4883   91.5982   12.6309 C.2     1  UNL1        0.2536
      2 O          65.5479   92.0041   11.1881 O.2     1  UNL1       -0.2697
      3 N          64.4534   90.6149   13.0912 N.am    1  UNL1       -0.2657
      4 H          64.4142   90.3485   14.0382 H       1  UNL1        0.1566
      5 C          69.3899   93.9077   16.5608 C.3     1  UNL1        0.0737
      6 C          68.4145   93.3303   15.5783 C.ar    1  UNL1        0.1396
      7 N          68.9103   92.7071   14.3072 N.ar    1  UNL1       -0.2290
      8 C          67.9349   92.1297   13.3248 C.ar    1  UNL1        0.1063
      9 C          66.4637   92.1756   13.6134 C.ar    1  UNL1        0.0919
     10 C          65.9679   92.7988   14.8844 C.ar    1  UNL1        0.1063
     11 N          66.9433   93.3762   15.8669 N.ar    1  UNL1       -0.2290
     12 C          63.4780   90.0375   12.1087 C.ar    1  UNL1        0.1344
     13 C          62.9008   90.9030   11.0280 C.ar    1  UNL1        0.0345
     14 C          61.9254   90.3257   10.0456 C.ar    1  UNL1        0.0044
     15 C          61.5272   88.8828   10.1438 C.ar    1  UNL1        0.0198
     16 C          62.1044   88.0173   11.2244 C.ar    1  UNL1        0.1003
     17 N          63.0797   88.5947   12.2069 N.ar    1  UNL1       -0.2290
     18 C          60.5518   88.3054    9.1613 C.ar    1  UNL1        0.0085
     19 C          59.7768   89.0744    8.1327 C.ar    1  UNL1        0.0075
     20 C          58.9261   88.1019    7.3706 C.ar    1  UNL1        0.0355
     21 S          59.1754   86.7319    7.9282 S.2     1  UNL1       -0.0859
     22 C          60.1802   86.8576    9.0350 C.ar    1  UNL1        0.0355
@<TRIPOS>BOND
     1     5     6    1
     2     6     7   ar
     3     7     8   ar
     4     8     9   ar
     5     9     1    1
     6     1     2    2
     7     1     3   am
     8     3    12    1
     9    12    13   ar
    10    13    14   ar
    11    14    15   ar
    12    15    18    1
    13    18    19   ar
    14    19    20   ar
    15    20    21   ar
    16    21    22   ar
    17    15    16   ar
    18    16    17   ar
    19     9    10   ar
    20    10    11   ar
    21    11     6   ar
    22    17    12   ar
    23    22    18   ar
    24     3     4    1
@<TRIPOS>MOLECULE
*****
 22 24 0 0 0
SMALL
GASTEIGER

@<TRIPOS>ATOM
      1 C          62.3483   85.3681    9.8917 C.2     1  UNL1        0.2536
      2 O          63.1573   85.6821    8.6682 O.2     1  UNL1       -0.2697
      3 N          61.0448   86.0710   10.1296 N.am    1  UNL1       -0.2657
      4 H          60.5138   85.8649   10.9326 H       1  UNL1        0.1566
      5 C          64.3268   81.3009   13.8343 C.3     1  UNL1        0.0737
      6 C          63.8322   82.3177   12.8486 C.ar    1  UNL1        0.1396
      7 N          62.9686   83.4532   13.3120 N.ar    1  UNL1       -0.2290
      8 C          62.4740   84.4700   12.3264 C.ar    1  UNL1        0.1063
      9 C          62.8430   84.3513   10.8774 C.ar    1  UNL1        0.0919
     10 C          63.7065   83.2158   10.4140 C.ar    1  UNL1        0.1063
     11 N          64.2012   82.1990   11.3996 N.ar    1  UNL1       -0.2290
     12 C          60.5501   87.0878    9.1439 C.ar    1  UNL1        0.1344
     13 C          59.8202   86.6439    7.9109 C.ar    1  UNL1        0.0345
     14 C          59.3256   87.6607    6.9253 C.ar    1  UNL1        0.0044
     15 C          59.5609   89.1214    7.1727 C.ar    1  UNL1        0.0198
     16 C          60.2908   89.5652    8.4056 C.ar    1  UNL1        0.1003
     17 N          60.7854   88.5484    9.3913 N.ar    1  UNL1       -0.2290
     18 C          59.0663   90.1382    6.1870 C.ar    1  UNL1        0.0085
     19 C          59.9209   91.0036    5.3092 C.ar    1  UNL1        0.0075
     20 C          59.0130   91.8684    4.4858 C.ar    1  UNL1        0.0355
     21 S          57.5973   91.5374    4.8548 S.2     1  UNL1       -0.0859
     22 C          57.6302   90.4681    5.9063 C.ar    1  UNL1        0.0355
@<TRIPOS>BOND
     1     5     6    1
     2     6     7   ar
     3     7     8   ar
     4     8     9   ar
     5     9     1    1
     6     1     2    2
     7     1     3   am
     8     3    12    1
     9    12    13   ar
    10    13    14   ar
    11    14    15   ar
    12    15    18    1
    13    18    19   ar
    14    19    20   ar
    15    20    21   ar
    16    21    22   ar
    17    15    16   ar
    18    16    17   ar
    19     9    10   ar
    20    10    11   ar
    21    11     6   ar
    22    17    12   ar
    23    22    18   ar
    24     3     4    1
@<TRIPOS>MOLECULE
*****
 22 24 0 0 0
SMALL
GASTEIGER

@<TRIPOS>ATOM
      1 C          62.7024   88.9669   11.3129 C.2     1  UNL1        0.2536
      2 O          63.3551   88.0738   12.3260 O.2     1  UNL1       -0.2697
      3 N          63.1061   90.4081   11.2131 N.am    1  UNL1       -0.2657
      4 H          62.6778   90.9943   10.5482 H       1  UNL1        0.1566
      5 C          58.4773   86.7748    7.6601 C.3     1  UNL1        0.0737
      6 C          59.5336   87.3228    8.5733 C.ar    1  UNL1        0.1396
      7 N          59.7181   88.8058    8.7019 N.ar    1  UNL1       -0.2290
      8 C          60.7744   89.3539    9.6151 C.ar    1  UNL1        0.1063
      9 C          61.6462   88.4189   10.3997 C.ar    1  UNL1        0.0919
     10 C          61.4617   86.9359   10.2712 C.ar    1  UNL1        0.1063
     11 N          60.4054   86.3878    9.3580 N.ar    1  UNL1       -0.2290
     12 C          64.1624   90.9561   12.1263 C.ar    1  UNL1        0.1344
     13 C          64.2544   90.4712   13.5428 C.ar    1  UNL1        0.0345
     14 C          65.3107   91.0192   14.4560 C.ar    1  UNL1        0.0044
     15 C          66.2749   92.0522   13.9527 C.ar    1  UNL1        0.0198
     16 C          66.1829   92.5371   12.5363 C.ar    1  UNL1        0.1003
     17 N          65.1266   91.9891   11.6231 N.ar    1  UNL1       -0.2290
     18 C          67.3312   92.6002   14.8659 C.ar    1  UNL1        0.0085
     19 C          68.2435   91.7945   15.7425 C.ar    1  UNL1        0.0075
     20 C          69.1368   92.7465   16.4812 C.ar    1  UNL1        0.0355
     21 S          68.7766   94.1407   16.0611 S.2     1  UNL1       -0.0859
     22 C          67.6607   94.0504   15.0628 C.ar    1  UNL1        0.0355
@<TRIPOS>BOND
     1     5     6    1
     2     6     7   ar
     3     7     8   ar
     4     8     9   ar
     5     9     1    1
     6     1     2    2
     7     1     3   am
     8     3    12    1
     9    12    13   ar
    10    13    14   ar
    11    14    15   ar
    12    15    18    1
    13    18    19   ar
    14    19    20   ar
    15    20    21   ar
    16    21    22   ar
    17    15    16   ar
    18    16    17   ar
    19     9    10   ar
    20    10    11   ar
    21    11     6   ar
    22    17    12   ar
    23    22    18   ar
    24     3     4    1
@<TRIPOS>MOLECULE
*****
 22 24 0 0 0
SMALL
GASTEIGER

@<TRIPOS>ATOM
      1 C          62.7134   88.9783   11.3065 C.2     1  UNL1        0.2536
      2 O          63.3489   88.0942   12.3382 O.2     1  UNL1       -0.2697
      3 N          63.1304   90.4144   11.1900 N.am    1  UNL1       -0.2657
      4 H          62.7133   90.9947   10.5128 H       1  UNL1        0.1566
      5 C          58.5036   86.7701    7.6457 C.3     1  UNL1        0.0737
      6 C          59.5560   87.3221    8.5609 C.ar    1  UNL1        0.1396
      7 N          60.4234   86.3907    9.3546 N.ar    1  UNL1       -0.2290
      8 C          61.4758   86.9427   10.2698 C.ar    1  UNL1        0.1063
      9 C          61.6609   88.4262   10.3913 C.ar    1  UNL1        0.0919
     10 C          60.7936   89.3577    9.5976 C.ar    1  UNL1        0.1063
     11 N          59.7411   88.8057    8.6824 N.ar    1  UNL1       -0.2290
     12 C          64.1828   90.9664   12.1051 C.ar    1  UNL1        0.1344
     13 C          65.1634   91.9805   11.5950 C.ar    1  UNL1        0.0345
     14 C          66.2159   92.5325   12.5102 C.ar    1  UNL1        0.0044
     15 C          66.2877   92.0705   13.9355 C.ar    1  UNL1        0.0198
     16 C          65.3071   91.0565   14.4456 C.ar    1  UNL1        0.1003
     17 N          64.2547   90.5045   13.5304 N.ar    1  UNL1       -0.2290
     18 C          67.3402   92.6226   14.8507 C.ar    1  UNL1        0.0085
     19 C          68.2418   91.8213   15.7424 C.ar    1  UNL1        0.0075
     20 C          69.1347   92.7763   16.4777 C.ar    1  UNL1        0.0355
     21 S          68.7849   94.1679   16.0405 S.2     1  UNL1       -0.0859
     22 C          67.6759   94.0730   15.0350 C.ar    1  UNL1        0.0355
@<TRIPOS>BOND
     1     5     6    1
     2     6     7   ar
     3     7     8   ar
     4     8     9   ar
     5     9     1    1
     6     1     2    2
     7     1     3   am
     8     3    12    1
     9    12    13   ar
    10    13    14   ar
    11    14    15   ar
    12    15    18    1
    13    18    19   ar
    14    19    20   ar
    15    20    21   ar
    16    21    22   ar
    17    15    16   ar
    18    16    17   ar
    19     9    10   ar
    20    10    11   ar
    21    11     6   ar
    22    17    12   ar
    23    22    18   ar
    24     3     4    1
@<TRIPOS>MOLECULE
*****
 22 24 0 0 0
SMALL
GASTEIGER

@<TRIPOS>ATOM
      1 C          63.8343   85.1515   13.7673 C.2     1  UNL1        0.2536
      2 O          65.2533   85.3218   14.2224 O.2     1  UNL1       -0.2697
      3 N          63.0244   86.3505   13.3721 N.am    1  UNL1       -0.2657
      4 H          62.0930   86.2388   13.0734 H       1  UNL1        0.1566
      5 C          61.3975   79.6738   13.5276 C.3     1  UNL1        0.0737
      6 C          62.0067   81.0432   13.5876 C.ar    1  UNL1        0.1396
      7 N          62.1472   81.7445   14.9060 N.ar    1  UNL1       -0.2290
      8 C          62.7564   83.1139   14.9659 C.ar    1  UNL1        0.1063
      9 C          63.2251   83.7820   13.7074 C.ar    1  UNL1        0.0919
     10 C          63.0846   83.0807   12.3890 C.ar    1  UNL1        0.1063
     11 N          62.4754   81.7113   12.3290 N.ar    1  UNL1       -0.2290
     12 C          63.6336   87.7200   13.4321 C.ar    1  UNL1        0.1344
     13 C          64.4958   88.1069   14.5969 C.ar    1  UNL1        0.0345
     14 C          65.1050   89.4763   14.6569 C.ar    1  UNL1        0.0044
     15 C          64.8519   90.4588   13.5519 C.ar    1  UNL1        0.0198
     16 C          63.9897   90.0718   12.3871 C.ar    1  UNL1        0.1003
     17 N          63.3805   88.7024   12.3272 N.ar    1  UNL1       -0.2290
     18 C          65.4611   91.8282   13.6118 C.ar    1  UNL1        0.0085
     19 C          66.0688   92.4707   14.8235 C.ar    1  UNL1        0.0075
     20 C          66.5528   93.8351   14.4311 C.ar    1  UNL1        0.0355
     21 S          66.2444   94.0360   12.9770 S.2     1  UNL1       -0.0859
     22 C          65.5696   92.7956   12.4706 C.ar    1  UNL1        0.0355
@<TRIPOS>BOND
     1     5     6    1
     2     6     7   ar
     3     7     8   ar
     4     8     9   ar
     5     9     1    1
     6     1     2    2
     7     1     3   am
     8     3    12    1
     9    12    13   ar
    10    13    14   ar
    11    14    15   ar
    12    15    18    1
    13    18    19   ar
    14    19    20   ar
    15    20    21   ar
    16    21    22   ar
    17    15    16   ar
    18    16    17   ar
    19     9    10   ar
    20    10    11   ar
    21    11     6   ar
    22    17    12   ar
    23    22    18   ar
    24     3     4    1
@<TRIPOS>MOLECULE
*****
 22 24 0 0 0
SMALL
GASTEIGER

@<TRIPOS>ATOM
      1 C          44.8405   72.7916   16.0002 C.2     1  UNL1        0.2536
      2 O          44.1141   72.5952   17.2978 O.2     1  UNL1       -0.2697
      3 N          45.5334   74.0916   15.7179 N.am    1  UNL1       -0.2657
      4 H          46.0101   74.2205   14.8662 H       1  UNL1        0.1566
      5 C          44.9742   68.3770   11.9390 C.3     1  UNL1        0.0737
      6 C          44.9408   69.4806   12.9543 C.ar    1  UNL1        0.1396
      7 N          46.1817   69.8337   13.7195 N.ar    1  UNL1       -0.2290
      8 C          46.1482   70.9373   14.7347 C.ar    1  UNL1        0.1063
      9 C          44.8739   71.6880   14.9849 C.ar    1  UNL1        0.0919
     10 C          43.6330   71.3349   14.2197 C.ar    1  UNL1        0.1063
     11 N          43.6664   70.2312   13.2045 N.ar    1  UNL1       -0.2290
     12 C          45.4999   75.1953   16.7332 C.ar    1  UNL1        0.1344
     13 C          46.5585   75.2715   17.7933 C.ar    1  UNL1        0.0345
     14 C          46.5250   76.3751   18.8086 C.ar    1  UNL1        0.0044
     15 C          45.4330   77.4026   18.7638 C.ar    1  UNL1        0.0198
     16 C          44.3746   77.3264   17.7037 C.ar    1  UNL1        0.1003
     17 N          44.4080   76.2227   16.6884 N.ar    1  UNL1       -0.2290
     18 C          45.3996   78.5063   19.7791 C.ar    1  UNL1        0.0085
     19 C          45.6380   78.3565   21.2524 C.ar    1  UNL1        0.0075
     20 C          45.5077   79.7111   21.8832 C.ar    1  UNL1        0.0355
     21 S          45.1886   80.6982   20.7997 S.2     1  UNL1       -0.0859
     22 C          45.1218   79.9536   19.4993 C.ar    1  UNL1        0.0355
@<TRIPOS>BOND
     1     5     6    1
     2     6     7   ar
     3     7     8   ar
     4     8     9   ar
     5     9     1    1
     6     1     2    2
     7     1     3   am
     8     3    12    1
     9    12    13   ar
    10    13    14   ar
    11    14    15   ar
    12    15    18    1
    13    18    19   ar
    14    19    20   ar
    15    20    21   ar
    16    21    22   ar
    17    15    16   ar
    18    16    17   ar
    19     9    10   ar
    20    10    11   ar
    21    11     6   ar
    22    17    12   ar
    23    22    18   ar
    24     3     4    1
@<TRIPOS>MOLECULE
*****
 22 24 0 0 0
SMALL
GASTEIGER

@<TRIPOS>ATOM
      1 C          57.8120   93.7040   -0.7146 C.2     1  UNL1        0.2536
      2 O          56.7747   92.6277   -0.8399 O.2     1  UNL1       -0.2697
      3 N          57.5631   95.0583   -1.3094 N.am    1  UNL1       -0.2657
      4 H          58.2439   95.7647   -1.2272 H       1  UNL1        0.1566
      5 C          62.9567   92.5916    2.1655 C.3     1  UNL1        0.0737
      6 C          61.6705   92.8697    1.4454 C.ar    1  UNL1        0.1396
      7 N          60.8952   94.1172    1.7497 N.ar    1  UNL1       -0.2290
      8 C          59.6090   94.3953    1.0297 C.ar    1  UNL1        0.1063
      9 C          59.0982   93.4259    0.0054 C.ar    1  UNL1        0.0919
     10 C          59.8735   92.1784   -0.2989 C.ar    1  UNL1        0.1063
     11 N          61.1596   91.9003    0.4211 N.ar    1  UNL1       -0.2290
     12 C          56.2769   95.3364   -2.0294 C.ar    1  UNL1        0.1344
     13 C          55.0402   95.6762   -1.2514 C.ar    1  UNL1        0.0345
     14 C          53.7540   95.9542   -1.9714 C.ar    1  UNL1        0.0044
     15 C          53.7045   95.8926   -3.4694 C.ar    1  UNL1        0.0198
     16 C          54.9412   95.5528   -4.2473 C.ar    1  UNL1        0.1003
     17 N          56.2274   95.2747   -3.5273 N.ar    1  UNL1       -0.2290
     18 C          52.4184   96.1706   -4.1894 C.ar    1  UNL1        0.0085
     19 C          51.0595   96.2674   -3.5616 C.ar    1  UNL1        0.0075
     20 C          50.0666   96.5574   -4.6478 C.ar    1  UNL1        0.0355
     21 S          50.8117   96.6398   -5.9470 S.2     1  UNL1       -0.0859
     22 C          52.2652   96.4008   -5.6638 C.ar    1  UNL1        0.0355
@<TRIPOS>BOND
     1     5     6    1
     2     6     7   ar
     3     7     8   ar
     4     8     9   ar
     5     9     1    1
     6     1     2    2
     7     1     3   am
     8     3    12    1
     9    12    13   ar
    10    13    14   ar
    11    14    15   ar
    12    15    18    1
    13    18    19   ar
    14    19    20   ar
    15    20    21   ar
    16    21    22   ar
    17    15    16   ar
    18    16    17   ar
    19     9    10   ar
    20    10    11   ar
    21    11     6   ar
    22    17    12   ar
    23    22    18   ar
    24     3     4    1
@<TRIPOS>MOLECULE
*****
 22 24 0 0 0
SMALL
GASTEIGER

@<TRIPOS>ATOM
      1 C          56.1460   95.2455   -2.4509 C.2     1  UNL1        0.2536
      2 O          57.3287   95.8405   -3.1561 O.2     1  UNL1       -0.2697
      3 N          56.3510   94.3714   -1.2494 N.am    1  UNL1       -0.2657
      4 H          55.5747   93.9808   -0.7866 H       1  UNL1        0.1566
      5 C          50.5954   96.3622   -4.4367 C.3     1  UNL1        0.0737
      6 C          51.9830   96.0831   -3.9403 C.ar    1  UNL1        0.1396
      7 N          53.1345   96.0677   -4.9014 N.ar    1  UNL1       -0.2290
      8 C          54.5222   95.7885   -4.4050 C.ar    1  UNL1        0.1063
      9 C          54.7583   95.5247   -2.9474 C.ar    1  UNL1        0.0919
     10 C          53.6069   95.5401   -1.9863 C.ar    1  UNL1        0.1063
     11 N          52.2192   95.8193   -2.4827 N.ar    1  UNL1       -0.2290
     12 C          57.7386   94.0922   -0.7529 C.ar    1  UNL1        0.1344
     13 C          58.3086   92.7086   -0.8580 C.ar    1  UNL1        0.0345
     14 C          59.6963   92.4294   -0.3616 C.ar    1  UNL1        0.0044
     15 C          60.5140   93.5338    0.2400 C.ar    1  UNL1        0.0198
     16 C          59.9440   94.9173    0.3450 C.ar    1  UNL1        0.1003
     17 N          58.5563   95.1965   -0.1514 N.ar    1  UNL1       -0.2290
     18 C          61.9016   93.2546    0.7364 C.ar    1  UNL1        0.0085
     19 C          62.2622   92.3808    1.9010 C.ar    1  UNL1        0.0075
     20 C          63.7558   92.3863    2.0398 C.ar    1  UNL1        0.0355
     21 S          64.3183   93.2636    0.9609 S.2     1  UNL1       -0.0859
     22 C          63.1724   93.8003    0.1553 C.ar    1  UNL1        0.0355
@<TRIPOS>BOND
     1     5     6    1
     2     6     7   ar
     3     7     8   ar
     4     8     9   ar
     5     9     1    1
     6     1     2    2
     7     1     3   am
     8     3    12    1
     9    12    13   ar
    10    13    14   ar
    11    14    15   ar
    12    15    18    1
    13    18    19   ar
    14    19    20   ar
    15    20    21   ar
    16    21    22   ar
    17    15    16   ar
    18    16    17   ar
    19     9    10   ar
    20    10    11   ar
    21    11     6   ar
    22    17    12   ar
    23    22    18   ar
    24     3     4    1
