@<TRIPOS>MOLECULE
*****
 19 21 0 0 0
SMALL
GASTEIGER

@<TRIPOS>ATOM
      1 C          61.3163   86.4132    8.8421 C.2     1  UNL1        0.1223
      2 C          62.3603   85.5384    8.2139 C.2     1  UNL1        0.0343
      3 C          63.2290   84.6705    9.0755 C.2     1  UNL1        0.0232
      4 C          63.0536   84.6775   10.5651 C.2     1  UNL1        0.0975
      5 N          63.7569   83.9345   11.6621 N.2     1  UNL1       -0.2200
      6 C          63.1475   84.3501   12.9682 C.2     1  UNL1        0.1901
      7 N          62.0676   85.3500   12.6785 N.2     1  UNL1       -0.2236
      8 C          62.0096   85.5523   11.1933 C.2     1  UNL1        0.0863
      9 C          61.1409   86.4202   10.3317 C.3     1  UNL1        0.1112
     10 C          58.9858   86.9751    7.8404 C.3     1  UNL1        0.2520
     11 O          60.4476   87.2810    7.9805 O.2     1  UNL1       -0.4753
     12 S          63.5478   83.8531   14.3257 S.3     1  UNL1       -0.0709
     13 C          64.4581   84.6767   15.1876 C.3     1  UNL1        0.0913
     14 C          64.0431   86.0530   15.6159 C.ar    1  UNL1       -0.0109
     15 C          63.2517   86.2395   16.8764 C.ar    1  UNL1       -0.0034
     16 C          62.8367   87.6158   17.3047 C.ar    1  UNL1       -0.0003
     17 C          63.2131   88.8057   16.4726 C.ar    1  UNL1       -0.0000
     18 C          64.0046   88.6193   15.2121 C.ar    1  UNL1       -0.0003
     19 C          64.4196   87.2429   14.7838 C.ar    1  UNL1       -0.0034
@<TRIPOS>BOND
     1    10    11    1
     2    11     1    1
     3     1     2    2
     4     2     3    1
     5     3     4    2
     6     4     5    1
     7     5     6    2
     8     6    12    1
     9    12    13    1
    10    13    14    1
    11    14    15   ar
    12    15    16   ar
    13    16    17   ar
    14    17    18   ar
    15    18    19   ar
    16     6     7    1
    17     7     8    2
    18     8     9    1
    19     9     1    1
    20     8     4    1
    21    19    14   ar
@<TRIPOS>MOLECULE
*****
 19 21 0 0 0
SMALL
GASTEIGER

@<TRIPOS>ATOM
      1 C          65.7214   92.6963   11.9947 C.2     1  UNL1        0.1223
      2 C          65.6125   92.0099   13.3239 C.2     1  UNL1        0.0343
      3 C          64.5718   90.9512   13.5384 C.2     1  UNL1        0.0232
      4 C          63.6399   90.5788   12.4235 C.2     1  UNL1        0.0975
      5 N          62.5232   89.5809   12.3398 N.2     1  UNL1       -0.2200
      6 C          61.9418   89.6505   10.9588 C.2     1  UNL1        0.1901
      7 N          62.6993   90.6915   10.1890 N.2     1  UNL1       -0.2236
      8 C          63.7488   91.2652   11.0943 C.2     1  UNL1        0.0863
      9 C          64.7895   92.3239   10.8798 C.3     1  UNL1        0.1112
     10 C          66.3738   95.0810   11.1963 C.3     1  UNL1        0.2520
     11 O          66.7621   93.7550   11.7802 O.2     1  UNL1       -0.4753
     12 S          60.8029   88.8242   10.4390 S.3     1  UNL1       -0.0709
     13 C          60.6374   87.4045   10.8940 C.3     1  UNL1        0.0913
     14 C          61.5934   86.3494   10.4220 C.ar    1  UNL1       -0.0109
     15 C          62.0312   86.3215    8.9876 C.ar    1  UNL1       -0.0034
     16 C          62.9872   85.2664    8.5156 C.ar    1  UNL1       -0.0003
     17 C          63.5053   84.2391    9.4780 C.ar    1  UNL1       -0.0000
     18 C          63.0675   84.2670   10.9124 C.ar    1  UNL1       -0.0003
     19 C          62.1115   85.3222   11.3844 C.ar    1  UNL1       -0.0034
@<TRIPOS>BOND
     1    10    11    1
     2    11     1    1
     3     1     2    2
     4     2     3    1
     5     3     4    2
     6     4     5    1
     7     5     6    2
     8     6    12    1
     9    12    13    1
    10    13    14    1
    11    14    15   ar
    12    15    16   ar
    13    16    17   ar
    14    17    18   ar
    15    18    19   ar
    16     6     7    1
    17     7     8    2
    18     8     9    1
    19     9     1    1
    20     8     4    1
    21    19    14   ar
@<TRIPOS>MOLECULE
*****
 19 21 0 0 0
SMALL
GASTEIGER

@<TRIPOS>ATOM
      1 C          65.6890   92.6409   12.0262 C.2     1  UNL1        0.1223
      2 C          65.5818   91.9286   13.3419 C.2     1  UNL1        0.0343
      3 C          64.5410   90.8662   13.5369 C.2     1  UNL1        0.0232
      4 C          63.6075   90.5161   12.4163 C.2     1  UNL1        0.0975
      5 N          62.4903   89.5204   12.3146 N.2     1  UNL1       -0.2200
      6 C          61.9070   89.6173   10.9360 C.2     1  UNL1        0.1901
      7 N          62.6638   90.6729   10.1857 N.2     1  UNL1       -0.2236
      8 C          63.7147   91.2284   11.1006 C.2     1  UNL1        0.0863
      9 C          64.7555   92.2908   10.9056 C.3     1  UNL1        0.1112
     10 C          66.3771   94.9778   11.1231 C.3     1  UNL1        0.2520
     11 O          66.7298   93.7034   11.8312 O.2     1  UNL1       -0.4753
     12 S          60.7671   88.8017   10.4016 S.3     1  UNL1       -0.0709
     13 C          60.5906   87.3793   10.8437 C.3     1  UNL1        0.0913
     14 C          61.5670   86.3299   10.4017 C.ar    1  UNL1       -0.0109
     15 C          62.0863   85.3258   11.3877 C.ar    1  UNL1       -0.0034
     16 C          63.0627   84.2764   10.9458 C.ar    1  UNL1       -0.0003
     17 C          63.5198   84.2310    9.5178 C.ar    1  UNL1       -0.0000
     18 C          63.0004   85.2351    8.5318 C.ar    1  UNL1       -0.0003
     19 C          62.0240   86.2845    8.9738 C.ar    1  UNL1       -0.0034
@<TRIPOS>BOND
     1    10    11    1
     2    11     1    1
     3     1     2    2
     4     2     3    1
     5     3     4    2
     6     4     5    1
     7     5     6    2
     8     6    12    1
     9    12    13    1
    10    13    14    1
    11    14    15   ar
    12    15    16   ar
    13    16    17   ar
    14    17    18   ar
    15    18    19   ar
    16     6     7    1
    17     7     8    2
    18     8     9    1
    19     9     1    1
    20     8     4    1
    21    19    14   ar
@<TRIPOS>MOLECULE
*****
 19 21 0 0 0
SMALL
GASTEIGER

@<TRIPOS>ATOM
      1 C          65.3255   91.8352   13.2876 C.2     1  UNL1        0.1223
      2 C          65.3690   92.4107   11.9031 C.2     1  UNL1        0.0343
      3 C          64.3885   91.9471   10.8670 C.2     1  UNL1        0.0232
      4 C          63.3644   90.9080   11.2153 C.2     1  UNL1        0.0975
      5 N          62.2771   90.2607   10.4099 N.2     1  UNL1       -0.2200
      6 C          61.5615   89.2851   11.2966 C.2     1  UNL1        0.1901
      7 N          62.2066   89.3295   12.6501 N.2     1  UNL1       -0.2236
      8 C          63.3208   90.3325   12.5998 C.2     1  UNL1        0.0863
      9 C          64.3014   90.7961   13.6359 C.3     1  UNL1        0.1112
     10 C          66.8124   93.7106   14.2986 C.3     1  UNL1        0.2520
     11 O          66.3061   92.2989   14.3237 O.2     1  UNL1       -0.4753
     12 S          60.4041   88.4175   10.8995 S.3     1  UNL1       -0.0709
     13 C          60.5429   87.4604    9.7529 C.3     1  UNL1        0.0913
     14 C          61.5312   86.3348    9.8308 C.ar    1  UNL1       -0.0109
     15 C          62.2938   85.9202    8.6075 C.ar    1  UNL1       -0.0034
     16 C          63.2821   84.7946    8.6855 C.ar    1  UNL1       -0.0003
     17 C          63.5080   84.0836    9.9868 C.ar    1  UNL1       -0.0000
     18 C          62.7455   84.4982   11.2102 C.ar    1  UNL1       -0.0003
     19 C          61.7571   85.6239   11.1322 C.ar    1  UNL1       -0.0034
@<TRIPOS>BOND
     1    10    11    1
     2    11     1    1
     3     1     2    2
     4     2     3    1
     5     3     4    2
     6     4     5    1
     7     5     6    2
     8     6    12    1
     9    12    13    1
    10    13    14    1
    11    14    15   ar
    12    15    16   ar
    13    16    17   ar
    14    17    18   ar
    15    18    19   ar
    16     6     7    1
    17     7     8    2
    18     8     9    1
    19     9     1    1
    20     8     4    1
    21    19    14   ar
@<TRIPOS>MOLECULE
*****
 19 21 0 0 0
SMALL
GASTEIGER

@<TRIPOS>ATOM
      1 C          63.8707   83.0258   11.6755 C.2     1  UNL1        0.1223
      2 C          64.1194   83.0644   10.1968 C.2     1  UNL1        0.0343
      3 C          63.5178   84.1568    9.3633 C.2     1  UNL1        0.0232
      4 C          62.6674   85.2106   10.0085 C.2     1  UNL1        0.0975
      5 N          61.9469   86.4009    9.4482 N.2     1  UNL1       -0.2200
      6 C          61.2529   87.0980   10.5807 C.2     1  UNL1        0.1901
      7 N          61.5444   86.3385   11.8409 N.2     1  UNL1       -0.2236
      8 C          62.4186   85.1720   11.4872 C.2     1  UNL1        0.0863
      9 C          63.0203   84.0796   12.3207 C.3     1  UNL1        0.1112
     10 C          63.6185   81.1757   13.4820 C.3     1  UNL1        0.2520
     11 O          64.4723   81.9334   12.5090 O.2     1  UNL1       -0.4753
     12 S          60.4145   88.3372   10.4719 S.3     1  UNL1       -0.0709
     13 C          61.0284   89.6181    9.9899 C.3     1  UNL1        0.0913
     14 C          62.1601   90.2409   10.7522 C.ar    1  UNL1       -0.0109
     15 C          62.3704   89.8966   12.1970 C.ar    1  UNL1       -0.0034
     16 C          63.5022   90.5193   12.9593 C.ar    1  UNL1       -0.0003
     17 C          64.4237   91.4865   12.2770 C.ar    1  UNL1       -0.0000
     18 C          64.2134   91.8308   10.8323 C.ar    1  UNL1       -0.0003
     19 C          63.0816   91.2080   10.0699 C.ar    1  UNL1       -0.0034
@<TRIPOS>BOND
     1    10    11    1
     2    11     1    1
     3     1     2    2
     4     2     3    1
     5     3     4    2
     6     4     5    1
     7     5     6    2
     8     6    12    1
     9    12    13    1
    10    13    14    1
    11    14    15   ar
    12    15    16   ar
    13    16    17   ar
    14    17    18   ar
    15    18    19   ar
    16     6     7    1
    17     7     8    2
    18     8     9    1
    19     9     1    1
    20     8     4    1
    21    19    14   ar
@<TRIPOS>MOLECULE
*****
 19 21 0 0 0
SMALL
GASTEIGER

@<TRIPOS>ATOM
      1 C          63.2890   82.7043   13.8516 C.2     1  UNL1        0.1223
      2 C          62.7891   83.1333   12.5040 C.2     1  UNL1        0.0343
      3 C          62.7983   84.5854   12.1281 C.2     1  UNL1        0.0232
      4 C          63.3073   85.6085   13.0997 C.2     1  UNL1        0.0975
      5 N          63.4374   87.1002   13.0104 N.2     1  UNL1       -0.2200
      6 C          64.0177   87.5931   14.3028 C.2     1  UNL1        0.1901
      7 N          64.2463   86.4061   15.1909 N.2     1  UNL1       -0.2236
      8 C          63.8072   85.1795   14.4473 C.2     1  UNL1        0.0863
      9 C          63.7980   83.7274   14.8232 C.3     1  UNL1        0.1112
     10 C          62.5139   80.2669   13.3955 C.3     1  UNL1        0.2520
     11 O          63.2798   81.2522   14.2276 O.2     1  UNL1       -0.4753
     12 S          64.3169   89.0222   14.6467 S.3     1  UNL1       -0.0709
     13 C          63.4612   90.1221   14.0919 C.3     1  UNL1        0.0913
     14 C          63.9431   90.9309   12.9242 C.ar    1  UNL1       -0.0109
     15 C          65.1164   91.8520   13.0830 C.ar    1  UNL1       -0.0034
     16 C          65.5984   92.6608   11.9154 C.ar    1  UNL1       -0.0003
     17 C          64.9071   92.5486   10.5888 C.ar    1  UNL1       -0.0000
     18 C          63.7339   91.6276   10.4300 C.ar    1  UNL1       -0.0003
     19 C          63.2519   90.8187   11.5978 C.ar    1  UNL1       -0.0034
@<TRIPOS>BOND
     1    10    11    1
     2    11     1    1
     3     1     2    2
     4     2     3    1
     5     3     4    2
     6     4     5    1
     7     5     6    2
     8     6    12    1
     9    12    13    1
    10    13    14    1
    11    14    15   ar
    12    15    16   ar
    13    16    17   ar
    14    17    18   ar
    15    18    19   ar
    16     6     7    1
    17     7     8    2
    18     8     9    1
    19     9     1    1
    20     8     4    1
    21    19    14   ar
@<TRIPOS>MOLECULE
*****
 19 21 0 0 0
SMALL
GASTEIGER

@<TRIPOS>ATOM
      1 C          63.4419   82.3318   13.6289 C.2     1  UNL1        0.1223
      2 C          64.0759   83.2753   14.6076 C.2     1  UNL1        0.0343
      3 C          64.0202   84.7548   14.3670 C.2     1  UNL1        0.0232
      4 C          63.3305   85.2909   13.1476 C.2     1  UNL1        0.0975
      5 N          63.1171   86.6891   12.6484 N.2     1  UNL1       -0.2200
      6 C          62.3512   86.6099   11.3611 C.2     1  UNL1        0.1901
      7 N          62.0912   85.1627   11.0647 N.2     1  UNL1       -0.2236
      8 C          62.6965   84.3474   12.1689 C.2     1  UNL1        0.0863
      9 C          62.7522   82.8679   12.4095 C.3     1  UNL1        0.1112
     10 C          62.3752   79.9737   13.4024 C.3     1  UNL1        0.2520
     11 O          63.4976   80.8523   13.8695 O.2     1  UNL1       -0.4753
     12 S          61.9208   87.7737   10.5181 S.3     1  UNL1       -0.0709
     13 C          61.5963   89.0881   11.1639 C.3     1  UNL1        0.0913
     14 C          62.6885   90.0791   11.4376 C.ar    1  UNL1       -0.0109
     15 C          63.1835   90.9722   10.3388 C.ar    1  UNL1       -0.0034
     16 C          64.2757   91.9632   10.6125 C.ar    1  UNL1       -0.0003
     17 C          64.8729   92.0613   11.9850 C.ar    1  UNL1       -0.0000
     18 C          64.3779   91.1682   13.0838 C.ar    1  UNL1       -0.0003
     19 C          63.2856   90.1771   12.8101 C.ar    1  UNL1       -0.0034
@<TRIPOS>BOND
     1    10    11    1
     2    11     1    1
     3     1     2    2
     4     2     3    1
     5     3     4    2
     6     4     5    1
     7     5     6    2
     8     6    12    1
     9    12    13    1
    10    13    14    1
    11    14    15   ar
    12    15    16   ar
    13    16    17   ar
    14    17    18   ar
    15    18    19   ar
    16     6     7    1
    17     7     8    2
    18     8     9    1
    19     9     1    1
    20     8     4    1
    21    19    14   ar
@<TRIPOS>MOLECULE
*****
 19 21 0 0 0
SMALL
GASTEIGER

@<TRIPOS>ATOM
      1 C          63.2010   82.6452   13.6908 C.2     1  UNL1        0.1223
      2 C          62.7709   83.0981   12.3271 C.2     1  UNL1        0.0343
      3 C          62.8146   84.5548   11.9722 C.2     1  UNL1        0.0232
      4 C          63.2883   85.5587   12.9810 C.2     1  UNL1        0.0975
      5 N          63.4395   87.0497   12.9187 N.2     1  UNL1       -0.2200
      6 C          63.9630   87.5184   14.2440 C.2     1  UNL1        0.1901
      7 N          64.1354   86.3169   15.1254 N.2     1  UNL1       -0.2236
      8 C          63.7184   85.1058   14.3448 C.2     1  UNL1        0.0863
      9 C          63.6747   83.6490   14.6997 C.3     1  UNL1        0.1112
     10 C          61.8920   80.4067   13.8513 C.3     1  UNL1        0.2520
     11 O          63.1573   81.1884   14.0457 O.2     1  UNL1       -0.4753
     12 S          64.2617   88.9391   14.6215 S.3     1  UNL1       -0.0709
     13 C          64.0817   90.0363   13.6148 C.3     1  UNL1        0.0913
     14 C          64.9343   91.2683   13.6875 C.ar    1  UNL1       -0.0109
     15 C          65.1024   92.1366   12.4761 C.ar    1  UNL1       -0.0034
     16 C          65.9550   93.3686   12.5488 C.ar    1  UNL1       -0.0003
     17 C          66.6396   93.7322   13.8330 C.ar    1  UNL1       -0.0000
     18 C          66.4715   92.8638   15.0445 C.ar    1  UNL1       -0.0003
     19 C          65.6189   91.6318   14.9717 C.ar    1  UNL1       -0.0034
@<TRIPOS>BOND
     1    10    11    1
     2    11     1    1
     3     1     2    2
     4     2     3    1
     5     3     4    2
     6     4     5    1
     7     5     6    2
     8     6    12    1
     9    12    13    1
    10    13    14    1
    11    14    15   ar
    12    15    16   ar
    13    16    17   ar
    14    17    18   ar
    15    18    19   ar
    16     6     7    1
    17     7     8    2
    18     8     9    1
    19     9     1    1
    20     8     4    1
    21    19    14   ar
@<TRIPOS>MOLECULE
*****
 19 21 0 0 0
SMALL
GASTEIGER

@<TRIPOS>ATOM
      1 C          63.4731   83.0230   13.3442 C.2     1  UNL1        0.1223
      2 C          64.2211   83.4861   14.5591 C.2     1  UNL1        0.0343
      3 C          64.4199   84.9527   14.8037 C.2     1  UNL1        0.0232
      4 C          63.8708   85.9561   13.8334 C.2     1  UNL1        0.0975
      5 N          63.9095   87.4554   13.8102 N.2     1  UNL1       -0.2200
      6 C          63.1856   87.9189   12.5810 C.2     1  UNL1        0.1901
      7 N          62.6993   86.7061   11.8444 N.2     1  UNL1       -0.2236
      8 C          63.1229   85.4930   12.6184 C.2     1  UNL1        0.0863
      9 C          62.9240   84.0265   12.3738 C.3     1  UNL1        0.1112
     10 C          62.1187   80.8404   13.7334 C.3     1  UNL1        0.2520
     11 O          63.2743   81.5565   13.0996 O.2     1  UNL1       -0.4753
     12 S          62.9833   89.3450   12.1620 S.3     1  UNL1       -0.0709
     13 C          63.1884   90.4537   13.1513 C.3     1  UNL1        0.0913
     14 C          64.5328   91.1067   13.2779 C.ar    1  UNL1       -0.0109
     15 C          65.0327   92.0110   12.1906 C.ar    1  UNL1       -0.0034
     16 C          66.3771   92.6641   12.3172 C.ar    1  UNL1       -0.0003
     17 C          67.2217   92.4128   13.5312 C.ar    1  UNL1       -0.0000
     18 C          66.7217   91.5085   14.6186 C.ar    1  UNL1       -0.0003
     19 C          65.3773   90.8554   14.4919 C.ar    1  UNL1       -0.0034
@<TRIPOS>BOND
     1    10    11    1
     2    11     1    1
     3     1     2    2
     4     2     3    1
     5     3     4    2
     6     4     5    1
     7     5     6    2
     8     6    12    1
     9    12    13    1
    10    13    14    1
    11    14    15   ar
    12    15    16   ar
    13    16    17   ar
    14    17    18   ar
    15    18    19   ar
    16     6     7    1
    17     7     8    2
    18     8     9    1
    19     9     1    1
    20     8     4    1
    21    19    14   ar
