@<TRIPOS>MOLECULE
*****
 19 20 0 0 0
SMALL
GASTEIGER

@<TRIPOS>ATOM
      1 C          66.1319   93.8394   12.6112 C.2     1  UNL1        0.4053
      2 O          66.8585   94.4933   13.7490 O.2     1  UNL1       -0.2262
      3 N          65.4269   92.5326   12.8237 N.am    1  UNL1       -0.2383
      4 C          64.6230   91.6081   11.9582 C.3     1  UNL1        0.1218
      5 C          64.4298   90.6845   13.1242 C.2     1  UNL1        0.0038
      6 C          63.7248   89.3777   13.3367 C.2     1  UNL1        0.0444
      7 C          65.2338   91.6089   13.9897 C.3     1  UNL1        0.1218
      8 C          62.9982   88.7237   12.1989 C.1     1  UNL1       -0.0582
      9 C          62.2717   88.0698   11.0612 C.1     1  UNL1       -0.0405
     10 C          61.5451   87.4159    9.9233 C.ar    1  UNL1        0.1224
     11 C          60.0966   87.7226    9.6833 C.ar    1  UNL1        0.0276
     12 C          59.3701   87.0687    8.5455 C.ar    1  UNL1        0.0034
     13 C          60.0921   86.1081    7.6478 C.ar    1  UNL1        0.0148
     14 C          61.5406   85.8013    7.8879 C.ar    1  UNL1        0.0600
     15 C          62.2626   84.8407    6.9902 C.3     1  UNL1        0.0521
     16 N          62.2671   86.4552    9.0256 N.ar    1  UNL1       -0.2414
     17 O          66.1104   94.4923   11.2609 O.3     1  UNL1       -0.4345
     18 C          67.6403   94.8272    9.1878 C.3     1  UNL1        0.0513
     19 C          66.9188   93.9162   10.1363 C.3     1  UNL1        0.2102
@<TRIPOS>BOND
     1    18    19    1
     2    19    17    1
     3    17     1    1
     4     1     2    2
     5     1     3   am
     6     3     4    1
     7     4     5    1
     8     5     6    2
     9     6     8    1
    10     8     9    3
    11     9    10    1
    12    10    11   ar
    13    11    12   ar
    14    12    13   ar
    15    13    14   ar
    16    14    15    1
    17    14    16   ar
    18     5     7    1
    19     7     3    1
    20    16    10   ar
@<TRIPOS>MOLECULE
*****
 19 20 0 0 0
SMALL
GASTEIGER

@<TRIPOS>ATOM
      1 C          62.6175   81.8404   13.0906 C.2     1  UNL1        0.4053
      2 O          62.3580   80.5267   13.7666 O.2     1  UNL1       -0.2262
      3 N          62.9722   83.0472   13.9078 N.am    1  UNL1       -0.2383
      4 C          63.2900   84.4804   13.6001 C.3     1  UNL1        0.1218
      5 C          63.4739   84.7539   15.0634 C.2     1  UNL1        0.0038
      6 C          63.8286   85.9606   15.8806 C.2     1  UNL1        0.0444
      7 C          63.1560   83.3206   15.3712 C.3     1  UNL1        0.1218
      8 C          64.0881   87.2744   15.2046 C.1     1  UNL1       -0.0582
      9 C          64.3474   88.5880   14.5286 C.1     1  UNL1       -0.0405
     10 C          64.6069   89.9017   13.8526 C.ar    1  UNL1        0.1224
     11 C          63.8548   90.2656   12.6068 C.ar    1  UNL1        0.0276
     12 C          64.1143   91.5793   11.9309 C.ar    1  UNL1        0.0034
     13 C          65.1258   92.5291   12.5007 C.ar    1  UNL1        0.0148
     14 C          65.8779   92.1652   13.7465 C.ar    1  UNL1        0.0600
     15 C          66.8894   93.1150   14.3163 C.3     1  UNL1        0.0521
     16 N          65.6184   90.8515   14.4224 N.ar    1  UNL1       -0.2414
     17 O          62.5221   81.9472   11.5975 O.3     1  UNL1       -0.4345
     18 C          64.0498   83.3449   10.0281 C.3     1  UNL1        0.0513
     19 C          63.7692   82.0738   10.7735 C.3     1  UNL1        0.2102
@<TRIPOS>BOND
     1    18    19    1
     2    19    17    1
     3    17     1    1
     4     1     2    2
     5     1     3   am
     6     3     4    1
     7     4     5    1
     8     5     6    2
     9     6     8    1
    10     8     9    3
    11     9    10    1
    12    10    11   ar
    13    11    12   ar
    14    12    13   ar
    15    13    14   ar
    16    14    15    1
    17    14    16   ar
    18     5     7    1
    19     7     3    1
    20    16    10   ar
@<TRIPOS>MOLECULE
*****
 19 20 0 0 0
SMALL
GASTEIGER

@<TRIPOS>ATOM
      1 C          63.8718   91.1089   15.7822 C.2     1  UNL1        0.4053
      2 O          63.8596   92.2033   16.8081 O.2     1  UNL1       -0.2262
      3 N          63.5389   89.7022   16.1822 N.am    1  UNL1       -0.2383
      4 C          63.4493   88.3882   15.4642 C.3     1  UNL1        0.1218
      5 C          63.0680   87.7126   16.7480 C.2     1  UNL1        0.0038
      6 C          62.7351   86.3058   17.1480 C.2     1  UNL1        0.0444
      7 C          63.1575   89.0265   17.4660 C.3     1  UNL1        0.1218
      8 C          62.7473   85.2115   16.1221 C.1     1  UNL1       -0.0582
      9 C          62.7595   84.1173   15.0962 C.1     1  UNL1       -0.0405
     10 C          62.7717   83.0230   14.0703 C.ar    1  UNL1        0.1224
     11 C          62.1312   81.7015   14.3756 C.ar    1  UNL1        0.0276
     12 C          62.1435   80.6072   13.3498 C.ar    1  UNL1        0.0034
     13 C          62.7962   80.8345   12.0185 C.ar    1  UNL1        0.0148
     14 C          63.4367   82.1560   11.7131 C.ar    1  UNL1        0.0600
     15 C          64.0895   82.3833   10.3819 C.3     1  UNL1        0.0521
     16 N          63.4245   83.2503   12.7390 N.ar    1  UNL1       -0.2414
     17 O          64.2169   91.4215   14.3563 O.3     1  UNL1       -0.4345
     18 C          66.7816   91.7238   14.6420 C.3     1  UNL1        0.0513
     19 C          65.6144   91.2018   13.8575 C.3     1  UNL1        0.2102
@<TRIPOS>BOND
     1    18    19    1
     2    19    17    1
     3    17     1    1
     4     1     2    2
     5     1     3   am
     6     3     4    1
     7     4     5    1
     8     5     6    2
     9     6     8    1
    10     8     9    3
    11     9    10    1
    12    10    11   ar
    13    11    12   ar
    14    12    13   ar
    15    13    14   ar
    16    14    15    1
    17    14    16   ar
    18     5     7    1
    19     7     3    1
    20    16    10   ar
@<TRIPOS>MOLECULE
*****
 19 20 0 0 0
SMALL
GASTEIGER

@<TRIPOS>ATOM
      1 C          63.8311   83.3219   14.2856 C.2     1  UNL1        0.4053
      2 O          63.2202   82.1420   14.9820 O.2     1  UNL1       -0.2262
      3 N          63.7015   84.6931   14.8796 N.am    1  UNL1       -0.2383
      4 C          64.1615   86.0662   14.4886 C.3     1  UNL1        0.1218
      5 C          63.5181   86.6323   15.7197 C.2     1  UNL1        0.0038
      6 C          63.3885   88.0036   16.3137 C.2     1  UNL1        0.0444
      7 C          63.0581   85.2592   16.1107 C.3     1  UNL1        0.1218
      8 C          63.9994   89.1834   15.6174 C.1     1  UNL1       -0.0582
      9 C          64.6102   90.3632   14.9210 C.1     1  UNL1       -0.0405
     10 C          65.2211   91.5431   14.2247 C.ar    1  UNL1        0.1224
     11 C          66.0886   92.4986   14.9891 C.ar    1  UNL1        0.0276
     12 C          66.6994   93.6784   14.2927 C.ar    1  UNL1        0.0034
     13 C          66.4427   93.9026   12.8320 C.ar    1  UNL1        0.0148
     14 C          65.5753   92.9471   12.0676 C.ar    1  UNL1        0.0600
     15 C          65.3187   93.1713   10.6068 C.3     1  UNL1        0.0521
     16 N          64.9645   91.7673   12.7639 N.ar    1  UNL1       -0.2414
     17 O          64.5716   83.1304   12.9953 O.3     1  UNL1       -0.4345
     18 C          64.2936   82.5767   10.4721 C.3     1  UNL1        0.0513
     19 C          63.8682   83.3454   11.6879 C.3     1  UNL1        0.2102
@<TRIPOS>BOND
     1    18    19    1
     2    19    17    1
     3    17     1    1
     4     1     2    2
     5     1     3   am
     6     3     4    1
     7     4     5    1
     8     5     6    2
     9     6     8    1
    10     8     9    3
    11     9    10    1
    12    10    11   ar
    13    11    12   ar
    14    12    13   ar
    15    13    14   ar
    16    14    15    1
    17    14    16   ar
    18     5     7    1
    19     7     3    1
    20    16    10   ar
@<TRIPOS>MOLECULE
*****
 19 20 0 0 0
SMALL
GASTEIGER

@<TRIPOS>ATOM
      1 C          63.6815   86.2476   15.4322 C.2     1  UNL1        0.4053
      2 O          62.9095   85.7129   16.6020 O.2     1  UNL1       -0.2262
      3 N          63.8886   87.7256   15.2827 N.am    1  UNL1       -0.2383
      4 C          64.5809   88.6038   14.2829 C.3     1  UNL1        0.1218
      5 C          64.1816   89.8159   15.0712 C.2     1  UNL1        0.0038
      6 C          64.3887   91.2940   14.9216 C.2     1  UNL1        0.0444
      7 C          63.4893   88.9377   16.0709 C.3     1  UNL1        0.1218
      8 C          65.1607   91.8286   13.7519 C.1     1  UNL1       -0.0582
      9 C          65.9327   92.3632   12.5822 C.1     1  UNL1       -0.0405
     10 C          66.7047   92.8978   11.4124 C.ar    1  UNL1        0.1224
     11 C          67.6159   91.9922   10.6382 C.ar    1  UNL1        0.0276
     12 C          68.3879   92.5269    9.4685 C.ar    1  UNL1        0.0034
     13 C          68.2486   93.9671    9.0731 C.ar    1  UNL1        0.0148
     14 C          67.3374   94.8727    9.8473 C.ar    1  UNL1        0.0600
     15 C          67.1982   96.3129    9.4519 C.3     1  UNL1        0.0521
     16 N          66.5655   94.3381   11.0170 N.ar    1  UNL1       -0.2414
     17 O          64.2464   85.3040   14.4121 O.3     1  UNL1       -0.4345
     18 C          62.7615   85.1943   12.2830 C.3     1  UNL1        0.0513
     19 C          63.3263   84.5384   13.5080 C.3     1  UNL1        0.2102
@<TRIPOS>BOND
     1    18    19    1
     2    19    17    1
     3    17     1    1
     4     1     2    2
     5     1     3   am
     6     3     4    1
     7     4     5    1
     8     5     6    2
     9     6     8    1
    10     8     9    3
    11     9    10    1
    12    10    11   ar
    13    11    12   ar
    14    12    13   ar
    15    13    14   ar
    16    14    15    1
    17    14    16   ar
    18     5     7    1
    19     7     3    1
    20    16    10   ar
@<TRIPOS>MOLECULE
*****
 19 20 0 0 0
SMALL
GASTEIGER

@<TRIPOS>ATOM
      1 C          62.9581   83.4777   12.5188 C.2     1  UNL1        0.4053
      2 O          62.0793   82.3867   11.9824 O.2     1  UNL1       -0.2262
      3 N          62.7162   84.9021   12.1155 N.am    1  UNL1       -0.2383
      4 C          63.3614   86.2185   12.4329 C.3     1  UNL1        0.1218
      5 C          62.3742   86.9164   11.5451 C.2     1  UNL1        0.0038
      6 C          62.1323   88.3407   11.1417 C.2     1  UNL1        0.0444
      7 C          61.7290   85.6000   11.2276 C.3     1  UNL1        0.1218
      8 C          63.0111   89.4317   11.6782 C.1     1  UNL1       -0.0582
      9 C          63.8898   90.5226   12.2146 C.1     1  UNL1       -0.0405
     10 C          64.7685   91.6136   12.7510 C.ar    1  UNL1        0.1224
     11 C          65.2499   92.7045   11.8410 C.ar    1  UNL1        0.0276
     12 C          66.1286   93.7954   12.3774 C.ar    1  UNL1        0.0034
     13 C          66.5259   93.7954   13.8239 C.ar    1  UNL1        0.0148
     14 C          66.0445   92.7044   14.7339 C.ar    1  UNL1        0.0600
     15 C          66.4418   92.7044   16.1803 C.3     1  UNL1        0.0521
     16 N          65.1658   91.6136   14.1974 N.ar    1  UNL1       -0.2414
     17 O          64.0787   83.1443   13.4586 O.3     1  UNL1       -0.4345
     18 C          62.6060   83.8669   15.4733 C.3     1  UNL1        0.0513
     19 C          63.9137   83.3698   14.9324 C.3     1  UNL1        0.2102
@<TRIPOS>BOND
     1    18    19    1
     2    19    17    1
     3    17     1    1
     4     1     2    2
     5     1     3   am
     6     3     4    1
     7     4     5    1
     8     5     6    2
     9     6     8    1
    10     8     9    3
    11     9    10    1
    12    10    11   ar
    13    11    12   ar
    14    12    13   ar
    15    13    14   ar
    16    14    15    1
    17    14    16   ar
    18     5     7    1
    19     7     3    1
    20    16    10   ar
@<TRIPOS>MOLECULE
*****
 19 20 0 0 0
SMALL
GASTEIGER

@<TRIPOS>ATOM
      1 C          60.9674   86.6951   10.1270 C.2     1  UNL1        0.4053
      2 O          59.9843   86.4259    9.0265 O.2     1  UNL1       -0.2262
      3 N          61.6081   88.0461   10.2465 N.am    1  UNL1       -0.2383
      4 C          62.6022   88.6696   11.1808 C.3     1  UNL1        0.1218
      5 C          62.5141   89.9567   10.4155 C.2     1  UNL1        0.0038
      6 C          63.1547   91.3077   10.5351 C.2     1  UNL1        0.0444
      7 C          61.5199   89.3332    9.4813 C.3     1  UNL1        0.1218
      8 C          64.1379   91.5769   11.6356 C.1     1  UNL1       -0.0582
      9 C          65.1209   91.8461   12.7360 C.1     1  UNL1       -0.0405
     10 C          66.1041   92.1152   13.8365 C.ar    1  UNL1        0.1224
     11 C          65.6193   92.3265   15.2402 C.ar    1  UNL1        0.0276
     12 C          66.6025   92.5956   16.3406 C.ar    1  UNL1        0.0034
     13 C          68.0704   92.6536   16.0373 C.ar    1  UNL1        0.0148
     14 C          68.5551   92.4423   14.6337 C.ar    1  UNL1        0.0600
     15 C          70.0230   92.5003   14.3304 C.3     1  UNL1        0.0521
     16 N          67.5720   92.1732   13.5333 N.ar    1  UNL1       -0.2414
     17 O          61.3099   85.6132   11.1079 O.3     1  UNL1       -0.4345
     18 C          62.8267   83.5978   11.7306 C.3     1  UNL1        0.0513
     19 C          62.6217   84.8933   11.0029 C.3     1  UNL1        0.2102
@<TRIPOS>BOND
     1    18    19    1
     2    19    17    1
     3    17     1    1
     4     1     2    2
     5     1     3   am
     6     3     4    1
     7     4     5    1
     8     5     6    2
     9     6     8    1
    10     8     9    3
    11     9    10    1
    12    10    11   ar
    13    11    12   ar
    14    12    13   ar
    15    13    14   ar
    16    14    15    1
    17    14    16   ar
    18     5     7    1
    19     7     3    1
    20    16    10   ar
@<TRIPOS>MOLECULE
*****
 19 20 0 0 0
SMALL
GASTEIGER

@<TRIPOS>ATOM
      1 C          60.8535   86.1285    8.1396 C.2     1  UNL1        0.4053
      2 O          59.5824   85.7374    7.4456 O.2     1  UNL1       -0.2262
      3 N          60.9312   87.4269    8.8865 N.am    1  UNL1       -0.2383
      4 C          61.9923   88.1343    9.6764 C.3     1  UNL1        0.1218
      5 C          61.0412   89.2632    9.9429 C.2     1  UNL1        0.0038
      6 C          61.1190   90.5616   10.6899 C.2     1  UNL1        0.0444
      7 C          59.9802   88.5558    9.1531 C.3     1  UNL1        0.1218
      8 C          62.3901   90.9527   11.3838 C.1     1  UNL1       -0.0582
      9 C          63.6611   91.3438   12.0777 C.1     1  UNL1       -0.0405
     10 C          64.9321   91.7349   12.7717 C.ar    1  UNL1        0.1224
     11 C          66.1919   91.9229   11.9795 C.ar    1  UNL1        0.0276
     12 C          67.4629   92.3140   12.6735 C.ar    1  UNL1        0.0034
     13 C          67.4741   92.5170   14.1597 C.ar    1  UNL1        0.0148
     14 C          66.2143   92.3289   14.9519 C.ar    1  UNL1        0.0600
     15 C          66.2255   92.5319   16.4380 C.3     1  UNL1        0.0521
     16 N          64.9433   91.9379   14.2579 N.ar    1  UNL1       -0.2414
     17 O          62.0467   85.2211    8.0866 O.3     1  UNL1       -0.4345
     18 C          61.8519   84.1525    5.7264 C.3     1  UNL1        0.0513
     19 C          62.6630   84.8690    6.7651 C.3     1  UNL1        0.2102
@<TRIPOS>BOND
     1    18    19    1
     2    19    17    1
     3    17     1    1
     4     1     2    2
     5     1     3   am
     6     3     4    1
     7     4     5    1
     8     5     6    2
     9     6     8    1
    10     8     9    3
    11     9    10    1
    12    10    11   ar
    13    11    12   ar
    14    12    13   ar
    15    13    14   ar
    16    14    15    1
    17    14    16   ar
    18     5     7    1
    19     7     3    1
    20    16    10   ar
@<TRIPOS>MOLECULE
*****
 19 20 0 0 0
SMALL
GASTEIGER

@<TRIPOS>ATOM
      1 C          62.9154   83.7667   12.7095 C.2     1  UNL1        0.4053
      2 O          62.0356   82.6039   12.3572 O.2     1  UNL1       -0.2262
      3 N          62.6383   85.1205   12.1262 N.am    1  UNL1       -0.2383
      4 C          63.2739   86.4745   12.2395 C.3     1  UNL1        0.1218
      5 C          62.2464   87.0353   11.3014 C.2     1  UNL1        0.0038
      6 C          61.9693   88.3891   10.7182 C.2     1  UNL1        0.0444
      7 C          61.6109   85.6813   11.1881 C.3     1  UNL1        0.1218
      8 C          62.8491   89.5519   11.0704 C.1     1  UNL1       -0.0582
      9 C          63.7289   90.7146   11.4226 C.1     1  UNL1       -0.0405
     10 C          64.6087   91.8774   11.7748 C.ar    1  UNL1        0.1224
     11 C          65.2283   91.9631   13.1381 C.ar    1  UNL1        0.0276
     12 C          66.1081   93.1259   13.4903 C.ar    1  UNL1        0.0034
     13 C          66.3682   94.2029   12.4792 C.ar    1  UNL1        0.0148
     14 C          65.7485   94.1171   11.1158 C.ar    1  UNL1        0.0600
     15 C          66.0086   95.1941   10.1047 C.3     1  UNL1        0.0521
     16 N          64.8688   92.9544   10.7637 N.ar    1  UNL1       -0.2414
     17 O          64.0723   83.5755   13.6449 O.3     1  UNL1       -0.4345
     18 C          63.9477   85.2180   15.6541 C.3     1  UNL1        0.0513
     19 C          63.8967   83.8193   15.1146 C.3     1  UNL1        0.2102
@<TRIPOS>BOND
     1    18    19    1
     2    19    17    1
     3    17     1    1
     4     1     2    2
     5     1     3   am
     6     3     4    1
     7     4     5    1
     8     5     6    2
     9     6     8    1
    10     8     9    3
    11     9    10    1
    12    10    11   ar
    13    11    12   ar
    14    12    13   ar
    15    13    14   ar
    16    14    15    1
    17    14    16   ar
    18     5     7    1
    19     7     3    1
    20    16    10   ar
