@<TRIPOS>MOLECULE
*****
 41 44 0 0 0
SMALL
GASTEIGER

@<TRIPOS>ATOM
      1 N          61.5464   89.0072   10.3905 N.pl3   1  UNL1       -0.3025
      2 C          62.9215   89.4699   10.0097 C.3     1  UNL1        0.1124
      3 C          63.7685   90.2043   11.0063 C.3     1  UNL1        0.1149
      4 N          63.2405   90.4760   12.3838 N.am    1  UNL1       -0.2747
      5 C          64.0875   91.2103   13.3804 C.2     1  UNL1        0.2442
      6 O          63.5594   91.4820   14.7578 O.2     1  UNL1       -0.2731
      7 C          61.8654   90.0133   12.7646 C.3     1  UNL1        0.1149
      8 C          61.0184   89.2789   11.7679 C.3     1  UNL1        0.1124
      9 C          60.7450   86.7749    9.3301 C.ar    1  UNL1        0.0078
     10 C          59.8981   86.0405    8.3335 C.ar    1  UNL1       -0.0016
     11 C          59.0055   86.8040    7.4007 C.ar    1  UNL1        0.0021
     12 C          58.9599   88.3020    7.4644 C.ar    1  UNL1        0.0309
     13 C          59.8068   89.0364    8.4610 C.ar    1  UNL1        0.1530
     14 F          59.7612   90.5343    8.5247 F       1  UNL1       -0.2029
     15 C          60.6994   88.2728    9.3939 C.ar    1  UNL1        0.0730
     16 C          61.6376   86.0113   10.2631 C.3     1  UNL1        0.0813
     17 N          62.7154   85.1251    9.7125 N.3     1  UNL1       -0.2703
     18 C          62.8306   84.8692    7.1296 C.3     1  UNL1        0.0188
     19 C          63.3639   85.4587    8.4017 C.3     1  UNL1        0.0724
     20 C          63.1446   83.9053   10.4727 C.3     1  UNL1        0.0724
     21 C          64.3940   83.1758   10.0766 C.3     1  UNL1        0.0188
     22 C          61.4525   86.1340   11.7465 C.3     1  UNL1        0.0205
     23 C          62.6049   85.8719   12.6704 C.3     1  UNL1        0.0017
     24 C          63.6687   86.9129   12.8565 C.3     1  UNL1        0.0001
     25 C          62.6934   84.5689   13.4081 C.3     1  UNL1        0.0001
     26 C          65.4626   91.6730   12.9996 C.3     1  UNL1        0.1564
     27 N          66.4254   92.1163   14.0608 N.am    1  UNL1       -0.2727
     28 C          66.0609   92.6847   15.4004 C.3     1  UNL1        0.0943
     29 C          67.3321   92.9887   16.1364 C.3     1  UNL1        0.0311
     30 C          68.4823   92.6084   15.2518 C.3     1  UNL1        0.0870
     31 C          67.9219   92.0692   13.9690 C.2     1  UNL1        0.2260
     32 O          68.7182   91.5704   12.7998 O.2     1  UNL1       -0.2749
     33 C          65.8748   91.6925   11.5575 C.3     1  UNL1        0.0564
     34 C          66.2900   92.9820   10.9134 C.ar    1  UNL1       -0.0094
     35 C          65.6267   94.2670   11.3119 C.ar    1  UNL1       -0.0025
     36 C          66.0418   95.5565   10.6679 C.ar    1  UNL1        0.0111
     37 C          67.1202   95.5610    9.6253 C.ar    1  UNL1        0.0585
     38 CL         67.5354   96.8505    8.9812 Cl      1  UNL1       -0.0822
     39 C          67.7835   94.2760    9.2268 C.ar    1  UNL1        0.0225
     40 C          67.3684   92.9865    9.8708 C.ar    1  UNL1        0.0546
     41 CL         68.0317   91.7015    9.4723 Cl      1  UNL1       -0.0825
@<TRIPOS>BOND
     1    18    19    1
     2    19    17    1
     3    17    20    1
     4    20    21    1
     5    17    16    1
     6    16    22    1
     7    22    23    1
     8    23    24    1
     9    23    25    1
    10    16     9    1
    11     9    10   ar
    12    10    11   ar
    13    11    12   ar
    14    12    13   ar
    15    13    14    1
    16    13    15   ar
    17    15     1    1
    18     1     2    1
    19     2     3    1
    20     3     4    1
    21     4     5   am
    22     5     6    2
    23     5    26    1
    24    26    33    1
    25    33    34    1
    26    34    35   ar
    27    35    36   ar
    28    36    37   ar
    29    37    38    1
    30    37    39   ar
    31    39    40   ar
    32    40    41    1
    33    26    27    1
    34    27    28    1
    35    28    29    1
    36    29    30    1
    37    30    31    1
    38    31    32    2
    39     4     7    1
    40     7     8    1
    41    15     9   ar
    42     8     1    1
    43    40    34   ar
    44    31    27   am
@<TRIPOS>MOLECULE
*****
 41 44 0 0 0
SMALL
GASTEIGER

@<TRIPOS>ATOM
      1 N          64.4010   91.0922   13.1046 N.pl3   1  UNL1       -0.3025
      2 C          64.3374   89.5983   13.2238 C.3     1  UNL1        0.1124
      3 C          63.5106   88.8032   12.2573 C.3     1  UNL1        0.1149
      4 N          62.7473   89.5021   11.1714 N.am    1  UNL1       -0.2747
      5 C          61.9205   88.7071   10.2049 C.2     1  UNL1        0.2442
      6 O          61.1573   89.4059    9.1191 O.2     1  UNL1       -0.2731
      7 C          62.8109   90.9960   11.0521 C.3     1  UNL1        0.1149
      8 C          63.6378   91.7910   12.0187 C.3     1  UNL1        0.1124
      9 C          66.2739   92.8339   13.5616 C.ar    1  UNL1        0.0078
     10 C          67.1007   93.6289   14.5281 C.ar    1  UNL1       -0.0016
     11 C          66.8816   93.4773   16.0042 C.ar    1  UNL1        0.0021
     12 C          65.8356   92.5306   16.5138 C.ar    1  UNL1        0.0309
     13 C          65.0087   91.7356   15.5473 C.ar    1  UNL1        0.1530
     14 F          63.9627   90.7889   16.0568 F       1  UNL1       -0.2029
     15 C          65.2279   91.8872   14.0712 C.ar    1  UNL1        0.0730
     16 C          66.4930   92.9856   12.0854 C.3     1  UNL1        0.0813
     17 N          67.5096   92.1323   11.3865 N.3     1  UNL1       -0.2703
     18 C          68.9192   92.4972    9.2348 C.3     1  UNL1        0.0188
     19 C          67.6124   92.1617    9.8904 C.3     1  UNL1        0.0724
     20 C          68.4235   91.2496   12.1839 C.3     1  UNL1        0.0724
     21 C          69.4243   91.8579   13.1212 C.3     1  UNL1        0.0188
     22 C          65.6955   93.9904   11.3081 C.3     1  UNL1        0.0205
     23 C          66.2849   95.3331   10.9918 C.3     1  UNL1        0.0017
     24 C          67.0514   95.5345    9.7183 C.3     1  UNL1        0.0001
     25 C          66.1077   96.4743   11.9491 C.3     1  UNL1        0.0001
     26 C          61.8569   87.2132   10.3241 C.3     1  UNL1        0.1564
     27 N          61.9035   86.3597    9.0915 N.am    1  UNL1       -0.2727
     28 C          63.1139   85.6589    8.5494 C.3     1  UNL1        0.0943
     29 C          62.7063   84.9233    7.3074 C.3     1  UNL1        0.0311
     30 C          61.2439   85.1693    7.0818 C.3     1  UNL1        0.0870
     31 C          60.7477   86.0571    8.1845 C.2     1  UNL1        0.2260
     32 O          59.3425   86.5549    8.3508 O.2     1  UNL1       -0.2749
     33 C          61.7468   86.5727   11.6760 C.3     1  UNL1        0.0564
     34 C          62.4582   85.2818   11.9546 C.ar    1  UNL1       -0.0094
     35 C          62.1781   84.0738   11.1106 C.ar    1  UNL1       -0.0025
     36 C          62.8894   82.7829   11.3891 C.ar    1  UNL1        0.0111
     37 C          63.8809   82.7001   12.5116 C.ar    1  UNL1        0.0585
     38 CL         64.5923   81.4091   12.7902 Cl      1  UNL1       -0.0822
     39 C          64.1611   83.9080   13.3556 C.ar    1  UNL1        0.0225
     40 C          63.4497   85.1989   13.0771 C.ar    1  UNL1        0.0546
     41 CL         63.7299   86.4069   13.9211 Cl      1  UNL1       -0.0825
@<TRIPOS>BOND
     1    18    19    1
     2    19    17    1
     3    17    20    1
     4    20    21    1
     5    17    16    1
     6    16    22    1
     7    22    23    1
     8    23    24    1
     9    23    25    1
    10    16     9    1
    11     9    10   ar
    12    10    11   ar
    13    11    12   ar
    14    12    13   ar
    15    13    14    1
    16    13    15   ar
    17    15     1    1
    18     1     2    1
    19     2     3    1
    20     3     4    1
    21     4     5   am
    22     5     6    2
    23     5    26    1
    24    26    33    1
    25    33    34    1
    26    34    35   ar
    27    35    36   ar
    28    36    37   ar
    29    37    38    1
    30    37    39   ar
    31    39    40   ar
    32    40    41    1
    33    26    27    1
    34    27    28    1
    35    28    29    1
    36    29    30    1
    37    30    31    1
    38    31    32    2
    39     4     7    1
    40     7     8    1
    41    15     9   ar
    42     8     1    1
    43    40    34   ar
    44    31    27   am
@<TRIPOS>MOLECULE
*****
 41 44 0 0 0
SMALL
GASTEIGER

@<TRIPOS>ATOM
      1 N          61.4159   88.9272   10.3864 N.pl3   1  UNL1       -0.3025
      2 C          62.8360   89.3311   10.1216 C.3     1  UNL1        0.1124
      3 C          63.6159   90.0636   11.1729 C.3     1  UNL1        0.1149
      4 N          62.9757   90.3921   12.4891 N.am    1  UNL1       -0.2747
      5 C          63.7556   91.1245   13.5404 C.2     1  UNL1        0.2442
      6 O          63.1154   91.4530   14.8565 O.2     1  UNL1       -0.2731
      7 C          61.5556   89.9881   12.7539 C.3     1  UNL1        0.1149
      8 C          60.7757   89.2557   11.7025 C.3     1  UNL1        0.1124
      9 C          60.7374   86.7018    9.2298 C.ar    1  UNL1        0.0078
     10 C          59.9576   85.9694    8.1785 C.ar    1  UNL1       -0.0016
     11 C          59.0764   86.7298    7.2323 C.ar    1  UNL1        0.0021
     12 C          58.9750   88.2227    7.3375 C.ar    1  UNL1        0.0309
     13 C          59.7549   88.9551    8.3888 C.ar    1  UNL1        0.1530
     14 F          59.6535   90.4480    8.4940 F       1  UNL1       -0.2029
     15 C          60.6360   88.1947    9.3350 C.ar    1  UNL1        0.0730
     16 C          61.6186   85.9414   10.1760 C.3     1  UNL1        0.0813
     17 N          62.7321   85.0892    9.6432 N.3     1  UNL1       -0.2703
     18 C          62.7931   84.8180    7.0600 C.3     1  UNL1        0.0188
     19 C          63.3551   85.4121    8.3175 C.3     1  UNL1        0.0724
     20 C          63.2225   83.9141   10.4361 C.3     1  UNL1        0.0724
     21 C          64.3434   83.0684    9.9083 C.3     1  UNL1        0.0188
     22 C          61.3864   86.0333   11.6551 C.3     1  UNL1        0.0205
     23 C          62.5182   85.7884   12.6086 C.3     1  UNL1        0.0017
     24 C          62.6201   84.4778   13.3310 C.3     1  UNL1        0.0001
     25 C          63.5480   86.8542   12.8398 C.3     1  UNL1        0.0001
     26 C          65.1757   91.5284   13.2756 C.3     1  UNL1        0.1564
     27 N          65.4823   92.5343   12.2060 N.am    1  UNL1       -0.2727
     28 C          65.3972   92.3019   10.7265 C.3     1  UNL1        0.0943
     29 C          65.7902   93.5732   10.0341 C.3     1  UNL1        0.0311
     30 C          66.1182   94.5914   11.0856 C.3     1  UNL1        0.0870
     31 C          65.9279   93.9493   12.4279 C.2     1  UNL1        0.2260
     32 O          66.1450   94.6069   13.7585 O.2     1  UNL1       -0.2749
     33 C          66.2892   90.9265   14.0804 C.3     1  UNL1        0.0564
     34 C          67.3679   91.8044   14.6423 C.ar    1  UNL1       -0.0094
     35 C          68.7029   91.8806   13.9625 C.ar    1  UNL1       -0.0025
     36 C          69.7816   92.7584   14.5244 C.ar    1  UNL1        0.0111
     37 C          69.5254   93.5600   15.7661 C.ar    1  UNL1        0.0585
     38 CL         70.6042   94.4378   16.3280 Cl      1  UNL1       -0.0822
     39 C          68.1905   93.4837   16.4459 C.ar    1  UNL1        0.0225
     40 C          67.1117   92.6059   15.8840 C.ar    1  UNL1        0.0546
     41 CL         65.7768   92.5297   16.5638 Cl      1  UNL1       -0.0825
@<TRIPOS>BOND
     1    18    19    1
     2    19    17    1
     3    17    20    1
     4    20    21    1
     5    17    16    1
     6    16    22    1
     7    22    23    1
     8    23    24    1
     9    23    25    1
    10    16     9    1
    11     9    10   ar
    12    10    11   ar
    13    11    12   ar
    14    12    13   ar
    15    13    14    1
    16    13    15   ar
    17    15     1    1
    18     1     2    1
    19     2     3    1
    20     3     4    1
    21     4     5   am
    22     5     6    2
    23     5    26    1
    24    26    33    1
    25    33    34    1
    26    34    35   ar
    27    35    36   ar
    28    36    37   ar
    29    37    38    1
    30    37    39   ar
    31    39    40   ar
    32    40    41    1
    33    26    27    1
    34    27    28    1
    35    28    29    1
    36    29    30    1
    37    30    31    1
    38    31    32    2
    39     4     7    1
    40     7     8    1
    41    15     9   ar
    42     8     1    1
    43    40    34   ar
    44    31    27   am
@<TRIPOS>MOLECULE
*****
 41 44 0 0 0
SMALL
GASTEIGER

@<TRIPOS>ATOM
      1 N          61.5467   89.0334   10.5494 N.pl3   1  UNL1       -0.3025
      2 C          62.7054   89.9018   10.1578 C.3     1  UNL1        0.1124
      3 C          63.4866   90.6300   11.2111 C.3     1  UNL1        0.1149
      4 N          63.1091   90.4898   12.6561 N.am    1  UNL1       -0.2747
      5 C          63.8903   91.2180   13.7094 C.2     1  UNL1        0.2442
      6 O          63.5128   91.0778   15.1543 O.2     1  UNL1       -0.2731
      7 C          61.9504   89.6214   13.0477 C.3     1  UNL1        0.1149
      8 C          61.1692   88.8932   11.9943 C.3     1  UNL1        0.1124
      9 C          60.8672   86.8128    9.3843 C.ar    1  UNL1        0.0078
     10 C          60.0861   86.0846    8.3310 C.ar    1  UNL1       -0.0016
     11 C          59.2033   86.8488    7.3894 C.ar    1  UNL1        0.0021
     12 C          59.1016   88.3412    7.5012 C.ar    1  UNL1        0.0309
     13 C          59.8827   89.0694    8.5545 C.ar    1  UNL1        0.1530
     14 F          59.7810   90.5618    8.6662 F       1  UNL1       -0.2029
     15 C          60.7655   88.3052    9.4960 C.ar    1  UNL1        0.0730
     16 C          61.7501   86.0487   10.3259 C.3     1  UNL1        0.0813
     17 N          62.8100   85.1350    9.7855 N.3     1  UNL1       -0.2703
     18 C          64.4370   83.1409   10.1404 C.3     1  UNL1        0.0188
     19 C          63.2455   83.9393   10.5795 C.3     1  UNL1        0.0724
     20 C          63.4343   85.4172    8.4511 C.3     1  UNL1        0.0724
     21 C          62.8740   84.7841    7.2120 C.3     1  UNL1        0.0188
     22 C          61.5732   86.1982   11.8079 C.3     1  UNL1        0.0205
     23 C          62.6270   85.6860   12.7446 C.3     1  UNL1        0.0017
     24 C          62.5042   84.3113   13.3321 C.3     1  UNL1        0.0001
     25 C          63.8035   86.5485   13.0936 C.3     1  UNL1        0.0001
     26 C          65.0489   92.0864   13.3178 C.3     1  UNL1        0.1564
     27 N          66.2827   92.1201   14.1702 N.am    1  UNL1       -0.2727
     28 C          67.6715   91.7683   13.7256 C.3     1  UNL1        0.0943
     29 C          68.5914   91.9423   14.8975 C.3     1  UNL1        0.0311
     30 C          67.7713   92.4018   16.0665 C.3     1  UNL1        0.0870
     31 C          66.3444   92.5116   15.6169 C.2     1  UNL1        0.2260
     32 O          65.1831   92.9382   16.4652 O.2     1  UNL1       -0.2749
     33 C          64.9739   92.9210   12.0737 C.3     1  UNL1        0.0564
     34 C          66.0923   92.8808   11.0749 C.ar    1  UNL1       -0.0094
     35 C          66.8882   91.6228   10.8905 C.ar    1  UNL1       -0.0025
     36 C          68.0066   91.5825    9.8917 C.ar    1  UNL1        0.0111
     37 C          68.3290   92.8002    9.0774 C.ar    1  UNL1        0.0585
     38 CL         69.4475   92.7600    8.0786 Cl      1  UNL1       -0.0822
     39 C          67.5332   94.0582    9.2619 C.ar    1  UNL1        0.0225
     40 C          66.4148   94.0985   10.2606 C.ar    1  UNL1        0.0546
     41 CL         65.6189   95.3565   10.4451 Cl      1  UNL1       -0.0825
@<TRIPOS>BOND
     1    18    19    1
     2    19    17    1
     3    17    20    1
     4    20    21    1
     5    17    16    1
     6    16    22    1
     7    22    23    1
     8    23    24    1
     9    23    25    1
    10    16     9    1
    11     9    10   ar
    12    10    11   ar
    13    11    12   ar
    14    12    13   ar
    15    13    14    1
    16    13    15   ar
    17    15     1    1
    18     1     2    1
    19     2     3    1
    20     3     4    1
    21     4     5   am
    22     5     6    2
    23     5    26    1
    24    26    33    1
    25    33    34    1
    26    34    35   ar
    27    35    36   ar
    28    36    37   ar
    29    37    38    1
    30    37    39   ar
    31    39    40   ar
    32    40    41    1
    33    26    27    1
    34    27    28    1
    35    28    29    1
    36    29    30    1
    37    30    31    1
    38    31    32    2
    39     4     7    1
    40     7     8    1
    41    15     9   ar
    42     8     1    1
    43    40    34   ar
    44    31    27   am
@<TRIPOS>MOLECULE
*****
 41 44 0 0 0
SMALL
GASTEIGER

@<TRIPOS>ATOM
      1 N          62.7119   89.2634   12.0920 N.pl3   1  UNL1       -0.3025
      2 C          63.8502   90.0811   11.5575 C.3     1  UNL1        0.1124
      3 C          64.5690   91.0434   12.4559 C.3     1  UNL1        0.1149
      4 N          64.1495   91.1883   13.8888 N.am    1  UNL1       -0.2747
      5 C          64.8684   92.1506   14.7871 C.2     1  UNL1        0.2442
      6 O          64.4488   92.2954   16.2199 O.2     1  UNL1       -0.2731
      7 C          63.0112   90.3706   14.4232 C.3     1  UNL1        0.1149
      8 C          62.2923   89.4082   13.5248 C.3     1  UNL1        0.1124
      9 C          62.1493   86.8234   11.3992 C.ar    1  UNL1        0.0078
     10 C          61.4305   85.8610   10.5008 C.ar    1  UNL1       -0.0016
     11 C          60.5554   86.3762    9.3969 C.ar    1  UNL1        0.0021
     12 C          60.3991   87.8538    9.1913 C.ar    1  UNL1        0.0309
     13 C          61.1179   88.8162   10.0896 C.ar    1  UNL1        0.1530
     14 F          60.9616   90.2938    9.8840 F       1  UNL1       -0.2029
     15 C          61.9930   88.3010   11.1936 C.ar    1  UNL1        0.0730
     16 C          63.0245   86.3083   12.5032 C.3     1  UNL1        0.0813
     17 N          63.0977   84.8352   12.7768 N.3     1  UNL1       -0.2703
     18 C          62.8301   83.4278   14.9441 C.3     1  UNL1        0.0188
     19 C          62.2202   84.2231   13.8281 C.3     1  UNL1        0.0724
     20 C          64.0486   83.9743   11.9990 C.3     1  UNL1        0.0724
     21 C          63.5528   82.7299   11.3240 C.3     1  UNL1        0.0188
     22 C          63.8263   87.2661   13.3336 C.3     1  UNL1        0.0205
     23 C          64.3662   86.8345   14.6649 C.3     1  UNL1        0.0017
     24 C          65.5757   85.9499   14.7326 C.3     1  UNL1        0.0001
     25 C          63.6967   87.2875   15.9284 C.3     1  UNL1        0.0001
     26 C          66.0067   92.9682   14.2526 C.3     1  UNL1        0.1564
     27 N          67.3038   93.0291   15.0035 N.am    1  UNL1       -0.2727
     28 C          68.0427   94.2768   15.3873 C.3     1  UNL1        0.0943
     29 C          69.2854   93.8718   16.1234 C.3     1  UNL1        0.0311
     30 C          69.3145   92.3737   16.1945 C.3     1  UNL1        0.0870
     31 C          68.0898   91.8529   15.5023 C.2     1  UNL1        0.2260
     32 O          67.7168   90.4094   15.3379 O.2     1  UNL1       -0.2749
     33 C          65.8480   93.7250   12.9673 C.3     1  UNL1        0.0564
     34 C          66.6637   93.3446   11.7673 C.ar    1  UNL1       -0.0094
     35 C          67.5783   92.1572   11.8279 C.ar    1  UNL1       -0.0025
     36 C          68.3940   91.7768   10.6280 C.ar    1  UNL1        0.0111
     37 C          68.2952   92.5838    9.3675 C.ar    1  UNL1        0.0585
     38 CL         69.1110   92.2035    8.1675 Cl      1  UNL1       -0.0822
     39 C          67.3807   93.7713    9.3069 C.ar    1  UNL1        0.0225
     40 C          66.5650   94.1517   10.5068 C.ar    1  UNL1        0.0546
     41 CL         65.6505   95.3391   10.4463 Cl      1  UNL1       -0.0825
@<TRIPOS>BOND
     1    18    19    1
     2    19    17    1
     3    17    20    1
     4    20    21    1
     5    17    16    1
     6    16    22    1
     7    22    23    1
     8    23    24    1
     9    23    25    1
    10    16     9    1
    11     9    10   ar
    12    10    11   ar
    13    11    12   ar
    14    12    13   ar
    15    13    14    1
    16    13    15   ar
    17    15     1    1
    18     1     2    1
    19     2     3    1
    20     3     4    1
    21     4     5   am
    22     5     6    2
    23     5    26    1
    24    26    33    1
    25    33    34    1
    26    34    35   ar
    27    35    36   ar
    28    36    37   ar
    29    37    38    1
    30    37    39   ar
    31    39    40   ar
    32    40    41    1
    33    26    27    1
    34    27    28    1
    35    28    29    1
    36    29    30    1
    37    30    31    1
    38    31    32    2
    39     4     7    1
    40     7     8    1
    41    15     9   ar
    42     8     1    1
    43    40    34   ar
    44    31    27   am
