@<TRIPOS>MOLECULE
*****
 33 37 0 0 0
SMALL
GASTEIGER

@<TRIPOS>ATOM
      1 C          62.5816   89.5438   11.9432 C.ar    1  UNL1        0.1534
      2 C          63.2483   89.3410   13.2714 C.ar    1  UNL1        0.0351
      3 C          64.3426   90.2680   13.7106 C.ar    1  UNL1        0.0722
      4 CL         65.0094   90.0653   15.0389 Cl      1  UNL1       -0.0809
      5 C          64.7702   91.3979   12.8215 C.ar    1  UNL1        0.0577
      6 C          64.1035   91.6007   11.4932 C.ar    1  UNL1        0.0462
      7 C          63.0092   90.6736   11.0541 C.ar    1  UNL1        0.1602
      8 F          62.3424   90.8764    9.7257 F       1  UNL1       -0.2027
      9 O          60.4824   89.4556   12.2364 O.2     1  UNL1       -0.1498
     10 S          61.4872   88.6166   11.5040 S.O2    1  UNL1        0.0772
     11 O          62.4919   87.7777   10.7715 O.2     1  UNL1       -0.1498
     12 N          60.3929   87.6896   11.0647 N.pl3   1  UNL1       -0.1936
     13 H          59.9466   87.1084   11.7223 H       1  UNL1        0.1758
     14 C          59.9785   87.6479    9.6237 C.ar    1  UNL1        0.1786
     15 N          59.7305   86.4104    8.8130 N.ar    1  UNL1       -0.2214
     16 C          59.3381   86.8340    7.4286 C.ar    1  UNL1        0.1079
     17 C          59.3437   88.3334    7.3836 C.ar    1  UNL1        0.0588
     18 S          59.7395   88.8363    8.7403 S.2     1  UNL1       -0.0497
     19 N          65.8646   92.3250   13.2607 N.pl3   1  UNL1       -0.3319
     20 H          66.3878   92.1208   14.0693 H       1  UNL1        0.1468
     21 C          66.1618   93.5632   12.4680 C.3     1  UNL1        0.0870
     22 C          66.8930   93.4603   11.1623 C.3     1  UNL1        0.0202
     23 C          66.7179   94.5236   10.1188 C.3     1  UNL1        0.0018
     24 C          67.4491   94.4207    8.8132 C.3     1  UNL1        0.0024
     25 C          68.3554   93.2545    8.5510 C.3     1  UNL1        0.0002
     26 C          68.5305   92.1913    9.5944 C.3     1  UNL1        0.0024
     27 C          66.4360   94.4026   10.8321 C.3     1  UNL1        0.0269
     28 C          65.8117   95.6898   10.3810 C.3     1  UNL1        0.0884
     29 O          64.9054   96.8559   10.6432 O.3     1  UNL1       -0.3867
     30 C          66.5429   95.5868    9.0754 C.3     1  UNL1        0.0269
     31 C          65.9868   94.6265   11.4245 C.3     1  UNL1        0.0285
     32 C          67.7993   92.2942   10.9001 C.3     1  UNL1        0.0018
     33 H          64.9058   97.4453    9.8729 H       1  UNL1        0.2102
@<TRIPOS>BOND
     1     9    10    2
     2    10    11    2
     3    10    12    1
     4    12    14    1
     5    14    15   ar
     6    15    16   ar
     7    16    17   ar
     8    17    18   ar
     9    10     1    1
    10     1     2   ar
    11     2     3   ar
    12     3     4    1
    13     3     5   ar
    14     5    19    1
    15    19    21    1
    16    21    22    1
    17    22    23    1
    18    23    24    1
    19    24    25    1
    20    25    26    1
    21    26    27    1
    22    27    28    1
    23    28    29    1
    24    28    30    1
    25    28    31    1
    26    26    32    1
    27     5     6   ar
    28     6     7   ar
    29     7     8    1
    30    18    14   ar
    31     7     1   ar
    32    31    22    1
    33    32    22    1
    34    30    24    1
    35    12    13    1
    36    19    20    1
    37    29    33    1
@<TRIPOS>MOLECULE
*****
 33 37 0 0 0
SMALL
GASTEIGER

@<TRIPOS>ATOM
      1 C          64.7819   91.5696   12.1077 C.ar    1  UNL1        0.1534
      2 C          64.8715   90.5924   13.2421 C.ar    1  UNL1        0.0351
      3 C          63.9617   89.4004   13.2788 C.ar    1  UNL1        0.0722
      4 CL         64.0513   88.4231   14.4133 Cl      1  UNL1       -0.0809
      5 C          62.9622   89.1857   12.1811 C.ar    1  UNL1        0.0577
      6 C          62.8726   90.1629   11.0467 C.ar    1  UNL1        0.0462
      7 C          63.7824   91.3548   11.0100 C.ar    1  UNL1        0.1602
      8 F          63.6928   92.3321    9.8755 F       1  UNL1       -0.2027
      9 O          66.1160   92.3950   10.6797 O.2     1  UNL1       -0.1498
     10 S          65.6918   92.7616   12.0709 S.O2    1  UNL1        0.0772
     11 O          65.2675   93.1283   13.4621 O.2     1  UNL1       -0.1498
     12 N          66.6016   93.9536   12.0342 N.pl3   1  UNL1       -0.1936
     13 H          67.1662   94.1660   12.8122 H       1  UNL1        0.1758
     14 C          66.6511   94.8219   10.8121 C.ar    1  UNL1        0.1786
     15 N          67.7285   94.8147    9.7685 N.ar    1  UNL1       -0.2214
     16 C          67.3753   95.8383    8.7304 C.ar    1  UNL1        0.1079
     17 C          66.0795   96.4781    9.1325 C.ar    1  UNL1        0.0588
     18 S          65.6320   95.8500   10.4190 S.2     1  UNL1       -0.0497
     19 N          62.0523   87.9936   12.2179 N.pl3   1  UNL1       -0.3319
     20 H          61.8376   87.5646   13.0775 H       1  UNL1        0.1468
     21 C          61.4697   87.4553   10.9448 C.3     1  UNL1        0.0870
     22 C          62.1417   86.3178   10.2345 C.3     1  UNL1        0.0202
     23 C          62.6725   85.1536   11.0173 C.3     1  UNL1        0.0018
     24 C          63.3445   84.0162   10.3069 C.3     1  UNL1        0.0024
     25 C          63.4856   84.0429    8.8138 C.3     1  UNL1        0.0002
     26 C          62.9547   85.2071    8.0310 C.3     1  UNL1        0.0024
     27 C          62.3064   85.8145   11.1964 C.3     1  UNL1        0.0269
     28 C          62.5314   85.1269   12.5104 C.3     1  UNL1        0.0884
     29 O          62.3903   85.1001   14.0035 O.3     1  UNL1       -0.3867
     30 C          63.2034   83.9894   11.8000 C.3     1  UNL1        0.0269
     31 C          62.0006   86.2911   11.7276 C.3     1  UNL1        0.0285
     32 C          62.2828   86.3446    8.7414 C.3     1  UNL1        0.0018
     33 H          62.7833   84.2841   14.3508 H       1  UNL1        0.2102
@<TRIPOS>BOND
     1     9    10    2
     2    10    11    2
     3    10    12    1
     4    12    14    1
     5    14    15   ar
     6    15    16   ar
     7    16    17   ar
     8    17    18   ar
     9    10     1    1
    10     1     2   ar
    11     2     3   ar
    12     3     4    1
    13     3     5   ar
    14     5    19    1
    15    19    21    1
    16    21    22    1
    17    22    23    1
    18    23    24    1
    19    24    25    1
    20    25    26    1
    21    26    27    1
    22    27    28    1
    23    28    29    1
    24    28    30    1
    25    28    31    1
    26    26    32    1
    27     5     6   ar
    28     6     7   ar
    29     7     8    1
    30    18    14   ar
    31     7     1   ar
    32    31    22    1
    33    32    22    1
    34    30    24    1
    35    12    13    1
    36    19    20    1
    37    29    33    1
@<TRIPOS>MOLECULE
*****
 33 37 0 0 0
SMALL
GASTEIGER

@<TRIPOS>ATOM
      1 C          62.4845   89.7587   11.8125 C.ar    1  UNL1        0.1534
      2 C          63.0614   89.8495   13.1942 C.ar    1  UNL1        0.0351
      3 C          64.1528   90.8356   13.4878 C.ar    1  UNL1        0.0722
      4 CL         64.7298   90.9264   14.8695 Cl      1  UNL1       -0.0809
      5 C          64.6673   91.7310   12.3999 C.ar    1  UNL1        0.0577
      6 C          64.0904   91.6402   11.0183 C.ar    1  UNL1        0.0462
      7 C          62.9990   90.6540   10.7246 C.ar    1  UNL1        0.1602
      8 F          62.4220   90.5632    9.3429 F       1  UNL1       -0.2027
      9 O          60.4354   89.9025   11.2829 O.2     1  UNL1       -0.1498
     10 S          61.3930   88.7725   11.5188 S.O2    1  UNL1        0.0772
     11 O          62.3507   87.6424   11.7547 O.2     1  UNL1       -0.1498
     12 N          60.3017   87.7863   11.2251 N.pl3   1  UNL1       -0.1936
     13 H          59.6806   87.5126   11.9382 H       1  UNL1        0.1758
     14 C          60.1566   87.2171    9.8449 C.ar    1  UNL1        0.1786
     15 N          59.0131   87.4624    8.9057 N.ar    1  UNL1       -0.2214
     16 C          59.2793   86.6996    7.6419 C.ar    1  UNL1        0.1079
     17 C          60.5875   85.9828    7.8000 C.ar    1  UNL1        0.0588
     18 S          61.1297   86.3027    9.1615 S.2     1  UNL1       -0.0497
     19 N          65.7587   92.7172   12.6936 N.pl3   1  UNL1       -0.3319
     20 H          65.8030   93.1546   13.5745 H       1  UNL1        0.1468
     21 C          66.7827   93.0369   11.6452 C.3     1  UNL1        0.0870
     22 C          66.6760   94.3077   10.8554 C.3     1  UNL1        0.0202
     23 C          67.2907   94.3960    9.4900 C.3     1  UNL1        0.0018
     24 C          67.1840   95.6668    8.7003 C.3     1  UNL1        0.0024
     25 C          66.4625   96.8492    9.2759 C.3     1  UNL1        0.0002
     26 C          65.8478   96.7609   10.6413 C.3     1  UNL1        0.0024
     27 C          67.2407   93.8453   10.0350 C.3     1  UNL1        0.0269
     28 C          68.0121   93.2136    8.9144 C.3     1  UNL1        0.0884
     29 O          68.7336   92.0312    8.3388 O.3     1  UNL1       -0.3867
     30 C          67.9054   94.4844    8.1247 C.3     1  UNL1        0.0269
     31 C          67.3975   93.1253   10.2798 C.3     1  UNL1        0.0285
     32 C          65.9546   95.4902   11.4311 C.3     1  UNL1        0.0018
     33 H          69.0679   92.2547    7.4560 H       1  UNL1        0.2102
@<TRIPOS>BOND
     1     9    10    2
     2    10    11    2
     3    10    12    1
     4    12    14    1
     5    14    15   ar
     6    15    16   ar
     7    16    17   ar
     8    17    18   ar
     9    10     1    1
    10     1     2   ar
    11     2     3   ar
    12     3     4    1
    13     3     5   ar
    14     5    19    1
    15    19    21    1
    16    21    22    1
    17    22    23    1
    18    23    24    1
    19    24    25    1
    20    25    26    1
    21    26    27    1
    22    27    28    1
    23    28    29    1
    24    28    30    1
    25    28    31    1
    26    26    32    1
    27     5     6   ar
    28     6     7   ar
    29     7     8    1
    30    18    14   ar
    31     7     1   ar
    32    31    22    1
    33    32    22    1
    34    30    24    1
    35    12    13    1
    36    19    20    1
    37    29    33    1
@<TRIPOS>MOLECULE
*****
 33 37 0 0 0
SMALL
GASTEIGER

@<TRIPOS>ATOM
      1 C          63.9698   90.8990   12.0846 C.ar    1  UNL1        0.1534
      2 C          63.0246   90.9787   10.9227 C.ar    1  UNL1        0.0351
      3 C          62.1214   89.8227   10.6100 C.ar    1  UNL1        0.0722
      4 CL         61.1761   89.9024    9.4480 Cl      1  UNL1       -0.0809
      5 C          62.1634   88.5870   11.4592 C.ar    1  UNL1        0.0577
      6 C          63.1086   88.5072   12.6211 C.ar    1  UNL1        0.0462
      7 C          64.0119   89.6632   12.9338 C.ar    1  UNL1        0.1602
      8 F          64.9572   89.5835   14.0958 F       1  UNL1       -0.2027
      9 O          64.3975   92.0419   13.8198 O.2     1  UNL1       -0.1498
     10 S          64.8731   92.0550   12.3973 S.O2    1  UNL1        0.0772
     11 O          65.3488   92.0681   10.9749 O.2     1  UNL1       -0.1498
     12 N          65.7764   93.2110   12.7100 N.pl3   1  UNL1       -0.1936
     13 H          65.6733   94.0614   12.2249 H       1  UNL1        0.1758
     14 C          66.8366   93.0712   13.7618 C.ar    1  UNL1        0.1786
     15 N          67.0494   93.9915   14.9271 N.ar    1  UNL1       -0.2214
     16 C          68.2146   93.4757   15.7185 C.ar    1  UNL1        0.1079
     17 C          68.7219   92.2365   15.0424 C.ar    1  UNL1        0.0588
     18 S          67.8703   91.9866   13.8331 S.2     1  UNL1       -0.0497
     19 N          61.2601   87.4309   11.1465 N.pl3   1  UNL1       -0.3319
     20 H          60.5248   87.5413   10.5012 H       1  UNL1        0.1468
     21 C          61.4772   86.1068   11.8169 C.3     1  UNL1        0.0870
     22 C          62.4554   85.1260   11.2412 C.3     1  UNL1        0.0202
     23 C          62.6489   85.0437    9.7560 C.3     1  UNL1        0.0018
     24 C          63.6270   84.0630    9.1804 C.3     1  UNL1        0.0024
     25 C          64.4117   83.1646   10.0899 C.3     1  UNL1        0.0002
     26 C          64.2181   83.2469   11.5751 C.3     1  UNL1        0.0024
     27 C          62.2055   85.4710   10.2290 C.3     1  UNL1        0.0269
     28 C          61.8643   85.9421    8.8465 C.3     1  UNL1        0.0884
     29 O          61.0797   86.8405    7.9369 O.3     1  UNL1       -0.3867
     30 C          62.8424   84.9614    8.2709 C.3     1  UNL1        0.0269
     31 C          61.6708   86.0244   10.3316 C.3     1  UNL1        0.0285
     32 C          63.2400   84.2276   12.1507 C.3     1  UNL1        0.0018
     33 H          61.3230   86.6600    7.0155 H       1  UNL1        0.2102
@<TRIPOS>BOND
     1     9    10    2
     2    10    11    2
     3    10    12    1
     4    12    14    1
     5    14    15   ar
     6    15    16   ar
     7    16    17   ar
     8    17    18   ar
     9    10     1    1
    10     1     2   ar
    11     2     3   ar
    12     3     4    1
    13     3     5   ar
    14     5    19    1
    15    19    21    1
    16    21    22    1
    17    22    23    1
    18    23    24    1
    19    24    25    1
    20    25    26    1
    21    26    27    1
    22    27    28    1
    23    28    29    1
    24    28    30    1
    25    28    31    1
    26    26    32    1
    27     5     6   ar
    28     6     7   ar
    29     7     8    1
    30    18    14   ar
    31     7     1   ar
    32    31    22    1
    33    32    22    1
    34    30    24    1
    35    12    13    1
    36    19    20    1
    37    29    33    1
@<TRIPOS>MOLECULE
*****
 33 37 0 0 0
SMALL
GASTEIGER

@<TRIPOS>ATOM
      1 C          64.3643   91.3884   11.8561 C.ar    1  UNL1        0.1534
      2 C          63.4092   91.3494   10.7001 C.ar    1  UNL1        0.0351
      3 C          62.3549   90.2846   10.6341 C.ar    1  UNL1        0.0722
      4 CL         61.3997   90.2455    9.4781 Cl      1  UNL1       -0.0809
      5 C          62.2556   89.2587   11.7239 C.ar    1  UNL1        0.0577
      6 C          63.2106   89.2977   12.8799 C.ar    1  UNL1        0.0462
      7 C          64.2650   90.3626   12.9460 C.ar    1  UNL1        0.1602
      8 F          65.2201   90.4016   14.1020 F       1  UNL1       -0.2027
      9 O          65.0163   92.7642   13.3333 O.2     1  UNL1       -0.1498
     10 S          65.4187   92.4533   11.9222 S.O2    1  UNL1        0.0772
     11 O          65.8212   92.1423   10.5111 O.2     1  UNL1       -0.1498
     12 N          66.4731   93.5181   11.9883 N.pl3   1  UNL1       -0.1936
     13 H          67.0666   93.5752   12.7717 H       1  UNL1        0.1758
     14 C          66.6233   94.4959   10.8608 C.ar    1  UNL1        0.1786
     15 N          67.7392   94.5216    9.8587 N.ar    1  UNL1       -0.2214
     16 C          67.4895   95.6613    8.9160 C.ar    1  UNL1        0.1079
     17 C          66.2192   96.3399    9.3353 C.ar    1  UNL1        0.0588
     18 S          65.6839   95.6197   10.5372 S.2     1  UNL1       -0.0497
     19 N          61.2011   88.1939   11.6578 N.pl3   1  UNL1       -0.3319
     20 H          60.2622   88.4403   11.4936 H       1  UNL1        0.1468
     21 C          61.5772   86.7535   11.8418 C.3     1  UNL1        0.0870
     22 C          62.1549   85.9768   10.6959 C.3     1  UNL1        0.0202
     23 C          62.9188   84.7125   10.9561 C.3     1  UNL1        0.0018
     24 C          63.4964   83.9359    9.8102 C.3     1  UNL1        0.0024
     25 C          63.3100   84.4236    8.4040 C.3     1  UNL1        0.0002
     26 C          62.5461   85.6880    8.1437 C.3     1  UNL1        0.0024
     27 C          62.5565   85.2363   11.4002 C.3     1  UNL1        0.0269
     28 C          63.1052   84.2247   12.3623 C.3     1  UNL1        0.0884
     29 O          63.2915   83.7370   13.7685 O.3     1  UNL1       -0.3867
     30 C          63.6828   83.4481   11.2164 C.3     1  UNL1        0.0269
     31 C          62.3412   85.4891   12.1021 C.3     1  UNL1        0.0285
     32 C          61.9685   86.4646    9.2897 C.3     1  UNL1        0.0018
     33 H          63.8039   82.9134   13.7598 H       1  UNL1        0.2102
@<TRIPOS>BOND
     1     9    10    2
     2    10    11    2
     3    10    12    1
     4    12    14    1
     5    14    15   ar
     6    15    16   ar
     7    16    17   ar
     8    17    18   ar
     9    10     1    1
    10     1     2   ar
    11     2     3   ar
    12     3     4    1
    13     3     5   ar
    14     5    19    1
    15    19    21    1
    16    21    22    1
    17    22    23    1
    18    23    24    1
    19    24    25    1
    20    25    26    1
    21    26    27    1
    22    27    28    1
    23    28    29    1
    24    28    30    1
    25    28    31    1
    26    26    32    1
    27     5     6   ar
    28     6     7   ar
    29     7     8    1
    30    18    14   ar
    31     7     1   ar
    32    31    22    1
    33    32    22    1
    34    30    24    1
    35    12    13    1
    36    19    20    1
    37    29    33    1
@<TRIPOS>MOLECULE
*****
 33 37 0 0 0
SMALL
GASTEIGER

@<TRIPOS>ATOM
      1 C          64.2423   91.2119   11.9948 C.ar    1  UNL1        0.1534
      2 C          63.2613   91.1637   10.8610 C.ar    1  UNL1        0.0351
      3 C          62.2978   90.0194   10.7511 C.ar    1  UNL1        0.0722
      4 CL         61.3168   89.9711    9.6174 Cl      1  UNL1       -0.0809
      5 C          62.3153   88.9233   11.7750 C.ar    1  UNL1        0.0577
      6 C          63.2962   88.9715   12.9087 C.ar    1  UNL1        0.0462
      7 C          64.2597   90.1158   13.0186 C.ar    1  UNL1        0.1602
      8 F          65.2407   90.1641   14.1524 F       1  UNL1       -0.2027
      9 O          64.8671   92.5019   13.5587 O.2     1  UNL1       -0.1498
     10 S          65.2059   92.3563   12.1047 S.O2    1  UNL1        0.0772
     11 O          65.5446   92.2107   10.6508 O.2     1  UNL1       -0.1498
     12 N          66.1694   93.5006   12.2146 N.pl3   1  UNL1       -0.1936
     13 H          66.5638   93.7300   13.0870 H       1  UNL1        0.1758
     14 C          66.5321   94.2954   10.9953 C.ar    1  UNL1        0.1786
     15 N          67.6839   94.0210   10.0744 N.ar    1  UNL1       -0.2214
     16 C          67.6703   95.0602    8.9927 C.ar    1  UNL1        0.1079
     17 C          66.5101   95.9769    9.2452 C.ar    1  UNL1        0.0588
     18 S          65.8067   95.5042   10.4828 S.2     1  UNL1       -0.0497
     19 N          61.3517   87.7789   11.6650 N.pl3   1  UNL1       -0.3319
     20 H          60.4989   87.8045   12.1564 H       1  UNL1        0.1468
     21 C          61.6873   86.5957   10.8065 C.3     1  UNL1        0.0870
     22 C          62.4908   85.4623   11.3722 C.3     1  UNL1        0.0202
     23 C          63.1805   84.4992   10.4520 C.3     1  UNL1        0.0018
     24 C          63.9839   83.3659   11.0178 C.3     1  UNL1        0.0024
     25 C          64.0977   83.1957   12.5038 C.3     1  UNL1        0.0002
     26 C          63.4080   84.1588   13.4240 C.3     1  UNL1        0.0024
     27 C          62.7342   85.1272   10.3552 C.3     1  UNL1        0.0269
     28 C          63.0667   84.6694    8.9661 C.3     1  UNL1        0.0884
     29 O          62.9529   84.8396    7.4801 O.3     1  UNL1       -0.3867
     30 C          63.8701   83.5361    9.5318 C.3     1  UNL1        0.0269
     31 C          62.3771   85.6325    9.8863 C.3     1  UNL1        0.0285
     32 C          62.6046   85.2921   12.8582 C.3     1  UNL1        0.0018
     33 H          63.4540   84.1384    7.0350 H       1  UNL1        0.2102
@<TRIPOS>BOND
     1     9    10    2
     2    10    11    2
     3    10    12    1
     4    12    14    1
     5    14    15   ar
     6    15    16   ar
     7    16    17   ar
     8    17    18   ar
     9    10     1    1
    10     1     2   ar
    11     2     3   ar
    12     3     4    1
    13     3     5   ar
    14     5    19    1
    15    19    21    1
    16    21    22    1
    17    22    23    1
    18    23    24    1
    19    24    25    1
    20    25    26    1
    21    26    27    1
    22    27    28    1
    23    28    29    1
    24    28    30    1
    25    28    31    1
    26    26    32    1
    27     5     6   ar
    28     6     7   ar
    29     7     8    1
    30    18    14   ar
    31     7     1   ar
    32    31    22    1
    33    32    22    1
    34    30    24    1
    35    12    13    1
    36    19    20    1
    37    29    33    1
@<TRIPOS>MOLECULE
*****
 33 37 0 0 0
SMALL
GASTEIGER

@<TRIPOS>ATOM
      1 C          63.8646   91.0027   12.0785 C.ar    1  UNL1        0.1534
      2 C          62.8303   91.1600   11.0037 C.ar    1  UNL1        0.0351
      3 C          61.7988   90.0915   10.7933 C.ar    1  UNL1        0.0722
      4 CL         60.7644   90.2488    9.7184 Cl      1  UNL1       -0.0809
      5 C          61.8016   88.8657   11.6578 C.ar    1  UNL1        0.0577
      6 C          62.8359   88.7083   12.7327 C.ar    1  UNL1        0.0462
      7 C          63.8674   89.7768   12.9430 C.ar    1  UNL1        0.1602
      8 F          64.9018   89.6196   14.0179 F       1  UNL1       -0.2027
      9 O          65.2465   92.0200   10.8313 O.2     1  UNL1       -0.1498
     10 S          64.8962   92.0712   12.2889 S.O2    1  UNL1        0.0772
     11 O          64.5458   92.1224   13.7465 O.2     1  UNL1       -0.1498
     12 N          65.9277   93.1397   12.4993 N.pl3   1  UNL1       -0.1936
     13 H          65.9683   93.9115   11.8896 H       1  UNL1        0.1758
     14 C          66.8972   93.0322   13.6388 C.ar    1  UNL1        0.1786
     15 N          67.0309   94.0000   14.7770 N.ar    1  UNL1       -0.2214
     16 C          68.1196   93.5039   15.6819 C.ar    1  UNL1        0.1079
     17 C          68.6588   92.2295   15.1029 C.ar    1  UNL1        0.0588
     18 S          67.9033   91.9380   13.8402 S.2     1  UNL1       -0.0497
     19 N          60.7700   87.7971   11.4474 N.pl3   1  UNL1       -0.3319
     20 H          59.8204   88.0406   11.3576 H       1  UNL1        0.1468
     21 C          61.1854   86.3577   11.3740 C.3     1  UNL1        0.0870
     22 C          61.7248   85.7972   10.0913 C.3     1  UNL1        0.0202
     23 C          62.8134   84.7659   10.1226 C.3     1  UNL1        0.0018
     24 C          63.3527   84.2055    8.8400 C.3     1  UNL1        0.0024
     25 C          62.8033   84.6764    7.5261 C.3     1  UNL1        0.0002
     26 C          61.7146   85.7078    7.4948 C.3     1  UNL1        0.0024
     27 C          62.4171   85.1623   10.6599 C.3     1  UNL1        0.0269
     28 C          63.3628   84.2949   11.4365 C.3     1  UNL1        0.0884
     29 O          63.9122   83.8239   12.7504 O.3     1  UNL1       -0.3867
     30 C          63.9021   83.7345   10.1540 C.3     1  UNL1        0.0269
     31 C          62.2742   85.3263   11.4052 C.3     1  UNL1        0.0285
     32 C          61.1754   86.2682    8.7774 C.3     1  UNL1        0.0018
     33 H          64.6037   83.1621   12.5932 H       1  UNL1        0.2102
@<TRIPOS>BOND
     1     9    10    2
     2    10    11    2
     3    10    12    1
     4    12    14    1
     5    14    15   ar
     6    15    16   ar
     7    16    17   ar
     8    17    18   ar
     9    10     1    1
    10     1     2   ar
    11     2     3   ar
    12     3     4    1
    13     3     5   ar
    14     5    19    1
    15    19    21    1
    16    21    22    1
    17    22    23    1
    18    23    24    1
    19    24    25    1
    20    25    26    1
    21    26    27    1
    22    27    28    1
    23    28    29    1
    24    28    30    1
    25    28    31    1
    26    26    32    1
    27     5     6   ar
    28     6     7   ar
    29     7     8    1
    30    18    14   ar
    31     7     1   ar
    32    31    22    1
    33    32    22    1
    34    30    24    1
    35    12    13    1
    36    19    20    1
    37    29    33    1
@<TRIPOS>MOLECULE
*****
 33 37 0 0 0
SMALL
GASTEIGER

@<TRIPOS>ATOM
      1 C          64.5419   91.4143   12.0985 C.ar    1  UNL1        0.1534
      2 C          64.6580   90.3650   13.1640 C.ar    1  UNL1        0.0351
      3 C          63.8332   89.1151   13.0788 C.ar    1  UNL1        0.0722
      4 CL         63.9493   88.0657   14.1443 Cl      1  UNL1       -0.0809
      5 C          62.8923   88.9145   11.9279 C.ar    1  UNL1        0.0577
      6 C          62.7762   89.9638   10.8624 C.ar    1  UNL1        0.0462
      7 C          63.6010   91.2137   10.9477 C.ar    1  UNL1        0.1602
      8 F          63.4849   92.2631    9.8821 F       1  UNL1       -0.2027
      9 O          65.1130   92.7312   13.6606 O.2     1  UNL1       -0.1498
     10 S          65.3667   92.6644   12.1837 S.O2    1  UNL1        0.0772
     11 O          65.6205   92.5976   10.7069 O.2     1  UNL1       -0.1498
     12 N          66.1915   93.9143   12.2689 N.pl3   1  UNL1       -0.1936
     13 H          66.5271   94.2242   13.1410 H       1  UNL1        0.1758
     14 C          66.5051   94.6922   11.0253 C.ar    1  UNL1        0.1786
     15 N          67.6095   94.3954   10.0546 N.ar    1  UNL1       -0.2214
     16 C          67.5563   95.4232    8.9634 C.ar    1  UNL1        0.1079
     17 C          66.4190   96.3553    9.2597 C.ar    1  UNL1        0.0588
     18 S          65.7694   95.9035   10.5340 S.2     1  UNL1       -0.0497
     19 N          62.0675   87.6645   11.8427 N.pl3   1  UNL1       -0.3319
     20 H          61.1572   87.6488   12.2174 H       1  UNL1        0.1468
     21 C          62.6295   86.4383   11.1865 C.3     1  UNL1        0.0870
     22 C          62.1943   86.0628    9.8009 C.3     1  UNL1        0.0202
     23 C          60.8796   86.5516    9.2694 C.3     1  UNL1        0.0018
     24 C          60.4445   86.1761    7.8839 C.3     1  UNL1        0.0024
     25 C          61.3241   85.3118    7.0300 C.3     1  UNL1        0.0002
     26 C          62.6388   84.8230    7.5615 C.3     1  UNL1        0.0024
     27 C          61.2669   86.6347    9.9373 C.3     1  UNL1        0.0269
     28 C          60.0000   87.4159   10.1234 C.3     1  UNL1        0.0884
     29 O          59.1204   88.2802   10.9774 O.3     1  UNL1       -0.3867
     30 C          59.5649   87.0404    8.7379 C.3     1  UNL1        0.0269
     31 C          61.3147   86.9271   10.6549 C.3     1  UNL1        0.0285
     32 C          63.0739   85.1985    8.9470 C.3     1  UNL1        0.0018
     33 H          58.3148   88.5064   10.4866 H       1  UNL1        0.2102
@<TRIPOS>BOND
     1     9    10    2
     2    10    11    2
     3    10    12    1
     4    12    14    1
     5    14    15   ar
     6    15    16   ar
     7    16    17   ar
     8    17    18   ar
     9    10     1    1
    10     1     2   ar
    11     2     3   ar
    12     3     4    1
    13     3     5   ar
    14     5    19    1
    15    19    21    1
    16    21    22    1
    17    22    23    1
    18    23    24    1
    19    24    25    1
    20    25    26    1
    21    26    27    1
    22    27    28    1
    23    28    29    1
    24    28    30    1
    25    28    31    1
    26    26    32    1
    27     5     6   ar
    28     6     7   ar
    29     7     8    1
    30    18    14   ar
    31     7     1   ar
    32    31    22    1
    33    32    22    1
    34    30    24    1
    35    12    13    1
    36    19    20    1
    37    29    33    1
@<TRIPOS>MOLECULE
*****
 33 37 0 0 0
SMALL
GASTEIGER

@<TRIPOS>ATOM
      1 C          64.8232   91.6999   12.0947 C.ar    1  UNL1        0.1534
      2 C          64.8628   90.7242   13.2332 C.ar    1  UNL1        0.0351
      3 C          63.9236   89.5548   13.2518 C.ar    1  UNL1        0.0722
      4 CL         63.9632   88.5791   14.3904 Cl      1  UNL1       -0.0809
      5 C          62.9449   89.3611   12.1318 C.ar    1  UNL1        0.0577
      6 C          62.9053   90.3368   10.9932 C.ar    1  UNL1        0.0462
      7 C          63.8445   91.5062   10.9746 C.ar    1  UNL1        0.1602
      8 F          63.8049   92.4820    9.8360 F       1  UNL1       -0.2027
      9 O          66.2146   92.4844   10.6986 O.2     1  UNL1       -0.1498
     10 S          65.7625   92.8694   12.0761 S.O2    1  UNL1        0.0772
     11 O          65.3104   93.2543   13.4535 O.2     1  UNL1       -0.1498
     12 N          66.7016   94.0388   12.0575 N.pl3   1  UNL1       -0.1936
     13 H          67.3048   94.1979   12.8192 H       1  UNL1        0.1758
     14 C          66.7219   94.9659   10.8785 C.ar    1  UNL1        0.1786
     15 N          67.7195   94.9463    9.7585 N.ar    1  UNL1       -0.2214
     16 C          67.3623   96.0436    8.8002 C.ar    1  UNL1        0.1079
     17 C          66.1438   96.7413    9.3279 C.ar    1  UNL1        0.0588
     18 S          65.7480   96.0752   10.6123 S.2     1  UNL1       -0.0497
     19 N          62.0056   88.1916   12.1503 N.pl3   1  UNL1       -0.3319
     20 H          61.2967   88.1404   12.8316 H       1  UNL1        0.1468
     21 C          62.1465   87.1003   11.1310 C.3     1  UNL1        0.0870
     22 C          61.2449   87.0725    9.9325 C.3     1  UNL1        0.0202
     23 C          61.5097   86.1053    8.8170 C.3     1  UNL1        0.0018
     24 C          60.6081   86.0775    7.6186 C.3     1  UNL1        0.0024
     25 C          59.4416   87.0169    7.5357 C.3     1  UNL1        0.0002
     26 C          59.1768   87.9841    8.6511 C.3     1  UNL1        0.0024
     27 C          61.8498   86.2666    9.4961 C.3     1  UNL1        0.0269
     28 C          62.6761   85.1659    8.9000 C.3     1  UNL1        0.0884
     29 O          63.8426   84.2264    8.9829 O.3     1  UNL1       -0.3867
     30 C          61.7745   85.1381    7.7016 C.3     1  UNL1        0.0269
     31 C          62.4113   86.1331   10.0155 C.3     1  UNL1        0.0285
     32 C          60.0784   88.0119    9.8496 C.3     1  UNL1        0.0018
     33 H          63.8698   83.6737    8.1863 H       1  UNL1        0.2102
@<TRIPOS>BOND
     1     9    10    2
     2    10    11    2
     3    10    12    1
     4    12    14    1
     5    14    15   ar
     6    15    16   ar
     7    16    17   ar
     8    17    18   ar
     9    10     1    1
    10     1     2   ar
    11     2     3   ar
    12     3     4    1
    13     3     5   ar
    14     5    19    1
    15    19    21    1
    16    21    22    1
    17    22    23    1
    18    23    24    1
    19    24    25    1
    20    25    26    1
    21    26    27    1
    22    27    28    1
    23    28    29    1
    24    28    30    1
    25    28    31    1
    26    26    32    1
    27     5     6   ar
    28     6     7   ar
    29     7     8    1
    30    18    14   ar
    31     7     1   ar
    32    31    22    1
    33    32    22    1
    34    30    24    1
    35    12    13    1
    36    19    20    1
    37    29    33    1
