@<TRIPOS>MOLECULE
*****
 22 25 0 0 0
SMALL
GASTEIGER

@<TRIPOS>ATOM
      1 C          65.1890   91.0276   14.8710 C.2     1  UNL1        0.3425
      2 O          64.3775   91.9751   15.7038 O.2     1  UNL1       -0.2448
      3 C          62.0239   87.1678   10.7400 C.3     1  UNL1        0.0286
      4 C          62.5621   88.5167   11.1153 C.2     1  UNL1       -0.0179
      5 C          62.3663   89.6849   10.1950 C.2     1  UNL1       -0.0063
      6 C          62.9045   91.0338   10.5703 C.2     1  UNL1       -0.0008
      7 C          63.6385   91.2145   11.8658 C.2     1  UNL1       -0.0019
      8 C          63.8343   90.0463   12.7861 C.2     1  UNL1        0.0114
      9 C          64.5112   89.9209   14.1188 C.2     1  UNL1        0.0925
     10 C          64.3914   88.4945   14.5672 C.2     1  UNL1        0.1000
     11 N          63.6404   87.7384   13.5116 N.2     1  UNL1       -0.2621
     12 C          63.2961   88.6974   12.4109 C.3     1  UNL1        0.1441
     13 O          66.6784   91.1868   14.7905 O.3     1  UNL1       -0.4454
     14 C          67.2686   92.4265   14.1864 C.3     1  UNL1        0.2087
     15 C          67.0066   92.7572   12.7470 C.3     1  UNL1        0.0445
     16 C          67.6902   91.9789   11.6622 C.3     1  UNL1        0.0210
     17 C          67.4282   92.3097   10.2228 C.3     1  UNL1        0.0722
     18 N          66.4825   93.4188    9.8681 N.3     1  UNL1       -0.2727
     19 C          65.7990   94.1971   10.9530 C.3     1  UNL1        0.0722
     20 C          66.0610   93.8663   12.3925 C.3     1  UNL1        0.0210
     21 C          66.5945   93.2742   10.6710 C.3     1  UNL1        0.0722
     22 C          66.8314   92.9751   11.9725 C.3     1  UNL1        0.0210
@<TRIPOS>BOND
     1     3     4    1
     2     4     5    2
     3     5     6    1
     4     6     7    2
     5     7     8    1
     6     8     9    2
     7     9     1    1
     8     1     2    2
     9     1    13    1
    10    13    14    1
    11    14    15    1
    12    15    16    1
    13    16    17    1
    14    17    18    1
    15    18    19    1
    16    19    20    1
    17    18    21    1
    18    21    22    1
    19     9    10    1
    20    10    11    2
    21    11    12    1
    22    12     4    1
    23    12     8    1
    24    20    15    1
    25    22    15    1
@<TRIPOS>MOLECULE
*****
 22 25 0 0 0
SMALL
GASTEIGER

@<TRIPOS>ATOM
      1 C          63.5176   83.8836   14.0112 C.2     1  UNL1        0.3425
      2 O          63.7567   82.6082   14.7634 O.2     1  UNL1       -0.2448
      3 C          62.9540   84.9700    7.6486 C.3     1  UNL1        0.0286
      4 C          62.6555   85.3478    9.0692 C.2     1  UNL1       -0.0179
      5 C          61.8193   86.5578    9.3636 C.2     1  UNL1       -0.0063
      6 C          61.5208   86.9356   10.7842 C.2     1  UNL1       -0.0008
      7 C          62.0583   86.1034   11.9104 C.2     1  UNL1       -0.0019
      8 C          62.8945   84.8933   11.6160 C.2     1  UNL1        0.0114
      9 C          63.5565   83.8887   12.5117 C.2     1  UNL1        0.0925
     10 C          64.2643   82.8900   11.6447 C.2     1  UNL1        0.1000
     11 N          64.0396   83.2774   10.2132 N.2     1  UNL1       -0.2621
     12 C          63.1930   84.5156   10.1954 C.3     1  UNL1        0.1441
     13 O          63.2396   85.1542   14.7586 O.3     1  UNL1       -0.4454
     14 C          64.3435   86.1418   14.9956 C.3     1  UNL1        0.2087
     15 C          64.0247   87.5987   15.1559 C.3     1  UNL1        0.0445
     16 C          63.4310   88.0998   16.4390 C.3     1  UNL1        0.0210
     17 C          63.1122   89.5568   16.5992 C.3     1  UNL1        0.0722
     18 N          63.3871   90.5126   15.4763 N.3     1  UNL1       -0.2727
     19 C          63.9808   90.0115   14.1933 C.3     1  UNL1        0.0722
     20 C          64.2996   88.5545   14.0330 C.3     1  UNL1        0.0210
     21 C          63.5787   89.7232   15.3419 C.3     1  UNL1        0.0722
     22 C          63.8669   88.4058   15.1969 C.3     1  UNL1        0.0210
@<TRIPOS>BOND
     1     3     4    1
     2     4     5    2
     3     5     6    1
     4     6     7    2
     5     7     8    1
     6     8     9    2
     7     9     1    1
     8     1     2    2
     9     1    13    1
    10    13    14    1
    11    14    15    1
    12    15    16    1
    13    16    17    1
    14    17    18    1
    15    18    19    1
    16    19    20    1
    17    18    21    1
    18    21    22    1
    19     9    10    1
    20    10    11    2
    21    11    12    1
    22    12     4    1
    23    12     8    1
    24    20    15    1
    25    22    15    1
@<TRIPOS>MOLECULE
*****
 22 25 0 0 0
SMALL
GASTEIGER

@<TRIPOS>ATOM
      1 C          61.6633   88.5418   11.1847 C.2     1  UNL1        0.3425
      2 O          60.3170   88.6110   11.8423 O.2     1  UNL1       -0.2448
      3 C          65.9419   93.2353   12.4677 C.3     1  UNL1        0.0286
      4 C          65.2288   91.9754   12.8605 C.2     1  UNL1       -0.0179
      5 C          65.5228   91.3278   14.1811 C.2     1  UNL1       -0.0063
      6 C          64.8096   90.0680   14.5739 C.2     1  UNL1       -0.0008
      7 C          63.8025   89.4558   13.6461 C.2     1  UNL1       -0.0019
      8 C          63.5085   90.1035   12.3255 C.2     1  UNL1        0.0114
      9 C          62.5736   89.7337   11.2122 C.2     1  UNL1        0.0925
     10 C          62.7090   90.7649   10.1314 C.2     1  UNL1        0.1000
     11 N          63.7275   91.7720   10.5767 N.2     1  UNL1       -0.2621
     12 C          64.2216   91.3633   11.9327 C.3     1  UNL1        0.1441
     13 O          62.0993   87.2807   10.4994 O.3     1  UNL1       -0.4454
     14 C          61.6588   85.9483   11.0294 C.3     1  UNL1        0.2087
     15 C          62.6515   84.8332   11.1735 C.3     1  UNL1        0.0445
     16 C          63.2456   84.1953    9.9528 C.3     1  UNL1        0.0210
     17 C          64.2383   83.0801   10.0970 C.3     1  UNL1        0.0722
     18 N          64.6370   82.6027   11.4620 N.3     1  UNL1       -0.2727
     19 C          64.0430   83.2405   12.6828 C.3     1  UNL1        0.0722
     20 C          63.0502   84.3558   12.5385 C.3     1  UNL1        0.0210
     21 C          64.0893   83.2169   11.4331 C.3     1  UNL1        0.0722
     22 C          63.1916   84.2252   11.3028 C.3     1  UNL1        0.0210
@<TRIPOS>BOND
     1     3     4    1
     2     4     5    2
     3     5     6    1
     4     6     7    2
     5     7     8    1
     6     8     9    2
     7     9     1    1
     8     1     2    2
     9     1    13    1
    10    13    14    1
    11    14    15    1
    12    15    16    1
    13    16    17    1
    14    17    18    1
    15    18    19    1
    16    19    20    1
    17    18    21    1
    18    21    22    1
    19     9    10    1
    20    10    11    2
    21    11    12    1
    22    12     4    1
    23    12     8    1
    24    20    15    1
    25    22    15    1
@<TRIPOS>MOLECULE
*****
 22 25 0 0 0
SMALL
GASTEIGER

@<TRIPOS>ATOM
      1 C          62.1454   89.6159   12.0087 C.2     1  UNL1        0.3425
      2 O          60.7018   89.6462   12.4146 O.2     1  UNL1       -0.2448
      3 C          66.8621   93.4330   14.2812 C.3     1  UNL1        0.0286
      4 C          66.0401   92.9117   13.1398 C.2     1  UNL1       -0.0179
      5 C          66.2915   93.4076   11.7467 C.2     1  UNL1       -0.0063
      6 C          65.4696   92.8863   10.6053 C.2     1  UNL1       -0.0008
      7 C          64.3963   91.8692   10.8571 C.2     1  UNL1       -0.0019
      8 C          64.1449   91.3734   12.2502 C.2     1  UNL1        0.0114
      9 C          63.1635   90.3816   12.8008 C.2     1  UNL1        0.0925
     10 C          63.3788   90.2898   14.2824 C.2     1  UNL1        0.1000
     11 N          64.4934   91.2249   14.6475 N.2     1  UNL1       -0.2621
     12 C          64.9668   91.8947   13.3916 C.3     1  UNL1        0.1441
     13 O          62.5711   88.8198   10.8107 O.3     1  UNL1       -0.4454
     14 C          62.2426   87.3587   10.7257 C.3     1  UNL1        0.2087
     15 C          61.4929   86.8264    9.5406 C.3     1  UNL1        0.0445
     16 C          60.0687   87.2358    9.3083 C.3     1  UNL1        0.0210
     17 C          59.3191   86.7034    8.1232 C.3     1  UNL1        0.0722
     18 N          59.9936   85.7615    7.1703 N.3     1  UNL1       -0.2727
     19 C          61.4178   85.3521    7.4026 C.3     1  UNL1        0.0722
     20 C          62.1675   85.8845    8.5878 C.3     1  UNL1        0.0210
     21 C          60.4450   86.0270    7.8057 C.3     1  UNL1        0.0722
     22 C          61.1230   86.5084    8.8772 C.3     1  UNL1        0.0210
@<TRIPOS>BOND
     1     3     4    1
     2     4     5    2
     3     5     6    1
     4     6     7    2
     5     7     8    1
     6     8     9    2
     7     9     1    1
     8     1     2    2
     9     1    13    1
    10    13    14    1
    11    14    15    1
    12    15    16    1
    13    16    17    1
    14    17    18    1
    15    18    19    1
    16    19    20    1
    17    18    21    1
    18    21    22    1
    19     9    10    1
    20    10    11    2
    21    11    12    1
    22    12     4    1
    23    12     8    1
    24    20    15    1
    25    22    15    1
@<TRIPOS>MOLECULE
*****
 22 25 0 0 0
SMALL
GASTEIGER

@<TRIPOS>ATOM
      1 C          63.6377   89.9495   15.6415 C.2     1  UNL1        0.3425
      2 O          63.1328   90.5981   16.8961 O.2     1  UNL1       -0.2448
      3 C          65.8209   93.0520   10.3889 C.3     1  UNL1        0.0286
      4 C          64.8277   92.1426   11.0496 C.2     1  UNL1       -0.0179
      5 C          63.6993   91.5586   10.2523 C.2     1  UNL1       -0.0063
      6 C          62.7062   90.6492   10.9130 C.2     1  UNL1       -0.0008
      7 C          62.8414   90.3236   12.3710 C.2     1  UNL1       -0.0019
      8 C          63.9698   90.9075   13.1682 C.2     1  UNL1        0.0114
      9 C          64.3568   90.7684   14.6108 C.2     1  UNL1        0.0925
     10 C          65.5891   91.5918   14.8416 C.2     1  UNL1        0.1000
     11 N          65.9637   92.2399   13.5418 N.2     1  UNL1       -0.2621
     12 C          64.9630   91.8170   12.5075 C.3     1  UNL1        0.1441
     13 O          63.4235   88.4818   15.4174 O.3     1  UNL1       -0.4454
     14 C          64.4468   87.6801   14.6690 C.3     1  UNL1        0.2087
     15 C          64.1359   86.2750   14.2462 C.3     1  UNL1        0.0445
     16 C          63.3668   86.0245   12.9830 C.3     1  UNL1        0.0210
     17 C          63.0560   84.6193   12.5602 C.3     1  UNL1        0.0722
     18 N          63.5143   83.4644   13.4006 N.3     1  UNL1       -0.2727
     19 C          64.2834   83.7148   14.6638 C.3     1  UNL1        0.0722
     20 C          64.5943   85.1201   15.0866 C.3     1  UNL1        0.0210
     21 C          63.7084   84.2168   13.6731 C.3     1  UNL1        0.0722
     22 C          63.9895   85.4874   14.0554 C.3     1  UNL1        0.0210
@<TRIPOS>BOND
     1     3     4    1
     2     4     5    2
     3     5     6    1
     4     6     7    2
     5     7     8    1
     6     8     9    2
     7     9     1    1
     8     1     2    2
     9     1    13    1
    10    13    14    1
    11    14    15    1
    12    15    16    1
    13    16    17    1
    14    17    18    1
    15    18    19    1
    16    19    20    1
    17    18    21    1
    18    21    22    1
    19     9    10    1
    20    10    11    2
    21    11    12    1
    22    12     4    1
    23    12     8    1
    24    20    15    1
    25    22    15    1
@<TRIPOS>MOLECULE
*****
 22 25 0 0 0
SMALL
GASTEIGER

@<TRIPOS>ATOM
      1 C          63.3684   86.0765   13.3468 C.2     1  UNL1        0.3425
      2 O          64.1092   86.8545   14.3936 O.2     1  UNL1       -0.2448
      3 C          62.1662   79.7101   13.2779 C.3     1  UNL1        0.0286
      4 C          62.6932   80.9467   12.6122 C.2     1  UNL1       -0.0179
      5 C          63.2743   80.8656   11.2317 C.2     1  UNL1       -0.0063
      6 C          63.8013   82.1022   10.5660 C.2     1  UNL1       -0.0008
      7 C          63.7474   83.4198   11.2808 C.2     1  UNL1       -0.0019
      8 C          63.1663   83.5008   12.6613 C.2     1  UNL1        0.0114
      9 C          62.9805   84.6509   13.6061 C.2     1  UNL1        0.0925
     10 C          62.3386   84.1252   14.8557 C.2     1  UNL1        0.1000
     11 N          62.1277   82.6502   14.6832 N.2     1  UNL1       -0.2621
     12 C          62.6393   82.2643   13.3270 C.3     1  UNL1        0.1441
     13 O          63.0156   86.7241   12.0405 O.3     1  UNL1       -0.4454
     14 C          61.6707   86.4815   11.4222 C.3     1  UNL1        0.2087
     15 C          61.5651   86.1459    9.9641 C.3     1  UNL1        0.0445
     16 C          62.7228   85.5071    9.2558 C.3     1  UNL1        0.0210
     17 C          62.6172   85.1715    7.7976 C.3     1  UNL1        0.0722
     18 N          61.3539   85.4748    7.0477 N.3     1  UNL1       -0.2727
     19 C          60.1963   86.1136    7.7560 C.3     1  UNL1        0.0722
     20 C          60.3019   86.4492    9.2143 C.3     1  UNL1        0.0210
     21 C          61.3648   85.6769    7.8459 C.3     1  UNL1        0.0722
     22 C          61.4602   85.9804    9.1643 C.3     1  UNL1        0.0210
@<TRIPOS>BOND
     1     3     4    1
     2     4     5    2
     3     5     6    1
     4     6     7    2
     5     7     8    1
     6     8     9    2
     7     9     1    1
     8     1     2    2
     9     1    13    1
    10    13    14    1
    11    14    15    1
    12    15    16    1
    13    16    17    1
    14    17    18    1
    15    18    19    1
    16    19    20    1
    17    18    21    1
    18    21    22    1
    19     9    10    1
    20    10    11    2
    21    11    12    1
    22    12     4    1
    23    12     8    1
    24    20    15    1
    25    22    15    1
@<TRIPOS>MOLECULE
*****
 22 25 0 0 0
SMALL
GASTEIGER

@<TRIPOS>ATOM
      1 C          61.1225   88.9063   11.7889 C.2     1  UNL1        0.3425
      2 O          59.7868   89.3378   12.3176 O.2     1  UNL1       -0.2448
      3 C          66.1031   93.0494   11.6924 C.3     1  UNL1        0.0286
      4 C          65.2850   92.0073   12.3957 C.2     1  UNL1       -0.0179
      5 C          65.6517   91.5777   13.7853 C.2     1  UNL1       -0.0063
      6 C          64.8336   90.5355   14.4886 C.2     1  UNL1       -0.0008
      7 C          63.6488   89.9230   13.8024 C.2     1  UNL1       -0.0019
      8 C          63.2821   90.3526   12.4128 C.2     1  UNL1        0.0114
      9 C          62.1773   89.9301   11.4903 C.2     1  UNL1        0.0925
     10 C          62.3126   90.7111   10.2169 C.2     1  UNL1        0.1000
     11 N          63.5010   91.6163   10.3523 N.2     1  UNL1       -0.2621
     12 C          64.1002   91.3947   11.7095 C.3     1  UNL1        0.1441
     13 O          61.4034   87.4509   11.5587 O.3     1  UNL1       -0.4454
     14 C          62.3800   87.0339   10.4993 C.3     1  UNL1        0.2087
     15 C          61.8873   86.3949    9.2349 C.3     1  UNL1        0.0445
     16 C          60.4703   86.6060    8.7905 C.3     1  UNL1        0.0210
     17 C          59.9777   85.9670    7.5260 C.3     1  UNL1        0.0722
     18 N          60.9021   85.1168    6.7058 N.3     1  UNL1       -0.2727
     19 C          62.3191   84.9056    7.1502 C.3     1  UNL1        0.0722
     20 C          62.8118   85.5447    8.4148 C.3     1  UNL1        0.0210
     21 C          61.2174   85.4463    7.3914 C.3     1  UNL1        0.0722
     22 C          61.6630   86.0241    8.5347 C.3     1  UNL1        0.0210
@<TRIPOS>BOND
     1     3     4    1
     2     4     5    2
     3     5     6    1
     4     6     7    2
     5     7     8    1
     6     8     9    2
     7     9     1    1
     8     1     2    2
     9     1    13    1
    10    13    14    1
    11    14    15    1
    12    15    16    1
    13    16    17    1
    14    17    18    1
    15    18    19    1
    16    19    20    1
    17    18    21    1
    18    21    22    1
    19     9    10    1
    20    10    11    2
    21    11    12    1
    22    12     4    1
    23    12     8    1
    24    20    15    1
    25    22    15    1
@<TRIPOS>MOLECULE
*****
 22 25 0 0 0
SMALL
GASTEIGER

@<TRIPOS>ATOM
      1 C          62.0227   89.3892   11.7954 C.2     1  UNL1        0.3425
      2 O          60.5876   89.3860   12.2315 O.2     1  UNL1       -0.2448
      3 C          66.7559   93.0673   14.2548 C.3     1  UNL1        0.0286
      4 C          65.9025   92.6390   13.0980 C.2     1  UNL1       -0.0179
      5 C          66.0966   93.2670   11.7498 C.2     1  UNL1       -0.0063
      6 C          65.2432   92.8386   10.5930 C.2     1  UNL1       -0.0008
      7 C          64.1956   91.7823   10.7845 C.2     1  UNL1       -0.0019
      8 C          64.0015   91.1543   12.1328 C.2     1  UNL1        0.0114
      9 C          63.0559   90.0971   12.6208 C.2     1  UNL1        0.0925
     10 C          63.3250   89.8720   14.0792 C.2     1  UNL1        0.1000
     11 N          64.4368   90.7902   14.4925 N.2     1  UNL1       -0.2621
     12 C          64.8549   91.5827   13.2895 C.3     1  UNL1        0.1441
     13 O          62.4247   88.6844   10.5337 O.3     1  UNL1       -0.4454
     14 C          61.6840   87.4573   10.0914 C.3     1  UNL1        0.2087
     15 C          62.2588   86.0977   10.3578 C.3     1  UNL1        0.0445
     16 C          62.9363   85.3404    9.2545 C.3     1  UNL1        0.0210
     17 C          63.5110   83.9807    9.5210 C.3     1  UNL1        0.0722
     18 N          63.4082   83.3783   10.8909 N.3     1  UNL1       -0.2727
     19 C          62.7307   84.1356   11.9943 C.3     1  UNL1        0.0722
     20 C          62.1560   85.4953   11.7277 C.3     1  UNL1        0.0210
     21 C          63.0782   84.1263   10.7928 C.3     1  UNL1        0.0722
     22 C          62.5585   85.3557   10.5520 C.3     1  UNL1        0.0210
@<TRIPOS>BOND
     1     3     4    1
     2     4     5    2
     3     5     6    1
     4     6     7    2
     5     7     8    1
     6     8     9    2
     7     9     1    1
     8     1     2    2
     9     1    13    1
    10    13    14    1
    11    14    15    1
    12    15    16    1
    13    16    17    1
    14    17    18    1
    15    18    19    1
    16    19    20    1
    17    18    21    1
    18    21    22    1
    19     9    10    1
    20    10    11    2
    21    11    12    1
    22    12     4    1
    23    12     8    1
    24    20    15    1
    25    22    15    1
@<TRIPOS>MOLECULE
*****
 22 25 0 0 0
SMALL
GASTEIGER

@<TRIPOS>ATOM
      1 C          64.2528   83.9460   11.8689 C.2     1  UNL1        0.3425
      2 O          64.8446   82.9361   10.9310 O.2     1  UNL1       -0.2448
      3 C          59.6154   87.2383    8.7648 C.3     1  UNL1        0.0286
      4 C          60.8042   86.3239    8.7442 C.2     1  UNL1       -0.0179
      5 C          61.3305   85.8072    7.4381 C.2     1  UNL1       -0.0063
      6 C          62.5194   84.8928    7.4176 C.2     1  UNL1       -0.0008
      7 C          63.1819   84.4950    8.7031 C.2     1  UNL1       -0.0019
      8 C          62.6556   85.0117   10.0093 C.2     1  UNL1        0.0114
      9 C          63.0978   84.7945   11.4261 C.2     1  UNL1        0.0925
     10 C          62.1823   85.5746   12.3222 C.2     1  UNL1        0.1000
     11 N          61.1743   86.2740   11.4593 N.2     1  UNL1       -0.2621
     12 C          61.4668   85.9262   10.0298 C.3     1  UNL1        0.1441
     13 O          64.8161   84.1075   13.2498 O.3     1  UNL1       -0.4454
     14 C          64.2334   83.3306   14.3930 C.3     1  UNL1        0.2087
     15 C          63.2847   82.2000   14.1252 C.3     1  UNL1        0.0445
     16 C          63.7986   80.9058   13.5676 C.3     1  UNL1        0.0210
     17 C          62.8499   79.7753   13.2997 C.3     1  UNL1        0.0722
     18 N          61.3872   79.9389   13.5895 N.3     1  UNL1       -0.2727
     19 C          60.8733   81.2331   14.1471 C.3     1  UNL1        0.0722
     20 C          61.8221   82.3637   14.4149 C.3     1  UNL1        0.0210
     21 C          61.8687   80.5866   13.7527 C.3     1  UNL1        0.0722
     22 C          62.7265   81.6089   13.9949 C.3     1  UNL1        0.0210
@<TRIPOS>BOND
     1     3     4    1
     2     4     5    2
     3     5     6    1
     4     6     7    2
     5     7     8    1
     6     8     9    2
     7     9     1    1
     8     1     2    2
     9     1    13    1
    10    13    14    1
    11    14    15    1
    12    15    16    1
    13    16    17    1
    14    17    18    1
    15    18    19    1
    16    19    20    1
    17    18    21    1
    18    21    22    1
    19     9    10    1
    20    10    11    2
    21    11    12    1
    22    12     4    1
    23    12     8    1
    24    20    15    1
    25    22    15    1
