@<TRIPOS>MOLECULE
*****
 45 49 0 0 0
SMALL
GASTEIGER

@<TRIPOS>ATOM
      1 C          63.0486   89.3371   13.0936 C.ar    1  UNL1        0.0846
      2 C          62.5499   88.7707   11.7972 C.ar    1  UNL1        0.0174
      3 C          62.5846   87.2894   11.5632 C.ar    1  UNL1       -0.0031
      4 C          63.1180   86.3746   12.6257 C.ar    1  UNL1       -0.0218
      5 C          63.6167   86.9410   13.9219 C.ar    1  UNL1        0.0091
      6 C          63.5820   88.4222   14.1559 C.ar    1  UNL1        0.1477
      7 C          64.1841   86.2126   15.1041 C.3     1  UNL1        0.0292
      8 C          64.3928   84.7378   15.2819 C.3     1  UNL1        0.0062
      9 C          64.0858   83.6274   14.3215 C.3     1  UNL1        0.0166
     10 C          63.4942   83.7172   12.9460 C.3     1  UNL1        0.0619
     11 C          63.0634   84.9399   12.1913 C.3     1  UNL1        0.0421
     12 N          63.3087   82.4119   12.2308 N.3     1  UNL1       -0.2713
     13 C          62.8212   81.2081   12.9812 C.3     1  UNL1        0.0896
     14 C          62.6358   79.9027   12.2659 C.3     1  UNL1        0.0897
     15 N          62.9378   79.8011   10.8001 N.3     1  UNL1       -0.2682
     16 C          63.4253   81.0050   10.0496 C.3     1  UNL1        0.0897
     17 C          63.6108   82.3104   10.7650 C.3     1  UNL1        0.0896
     18 C          62.7524   78.4958   10.0848 C.3     1  UNL1        0.1043
     19 C          63.2012   77.2174   10.7286 C.3     1  UNL1        0.1544
     20 O          62.6866   75.9023   10.2233 O.3     1  UNL1       -0.3805
     21 H          61.7331   75.8423   10.3907 H       1  UNL1        0.2105
     22 N          63.0140   90.8183   13.3275 N.pl3   1  UNL1       -0.2801
     23 H          62.1742   91.3168   13.2027 H       1  UNL1        0.1552
     24 C          66.2107   93.1674   13.2112 C.ar    1  UNL1        0.1472
     25 N          64.9659   92.4457   12.7873 N.ar    1  UNL1       -0.1976
     26 C          64.2588   91.5399   13.7515 C.ar    1  UNL1        0.2220
     27 N          64.7965   91.3558   15.1397 N.ar    1  UNL1       -0.2110
     28 C          66.0412   92.0774   15.5636 C.ar    1  UNL1        0.1160
     29 C          66.7483   92.9832   14.5994 C.ar    1  UNL1        0.1085
     30 CL         67.9931   93.7048   15.0234 Cl      1  UNL1       -0.0777
     31 N          66.9177   94.0731   12.2470 N.pl3   1  UNL1       -0.2970
     32 H          67.0101   95.0320   12.4498 H       1  UNL1        0.1536
     33 C          67.2977   94.2599    9.6837 C.ar    1  UNL1        0.0668
     34 C          67.8639   93.7046    8.4105 C.ar    1  UNL1        0.0058
     35 C          68.6162   92.4069    8.4274 C.ar    1  UNL1        0.0002
     36 C          68.8023   91.6646    9.7175 C.ar    1  UNL1        0.0013
     37 C          68.2362   92.2200   10.9907 C.ar    1  UNL1        0.0148
     38 C          67.4839   93.5177   10.9738 C.ar    1  UNL1        0.0537
     39 C          64.2958   96.8552    9.7377 C.3     1  UNL1        0.1109
     40 N          65.0481   95.5576    9.7546 N.am    1  UNL1       -0.2991
     41 C          66.5455   95.5575    9.6667 C.2     1  UNL1        0.2471
     42 O          67.2906   96.8551    9.5618 O.2     1  UNL1       -0.2701
     43 H          64.5590   94.7059    9.8235 H       1  UNL1        0.1498
     44 O          64.0808   88.9886   15.4522 O.3     1  UNL1       -0.4705
     45 C          63.1171   89.2766   16.5650 C.3     1  UNL1        0.2525
@<TRIPOS>BOND
     1    39    40    1
     2    40    41   am
     3    41    42    2
     4    41    33    1
     5    33    34   ar
     6    34    35   ar
     7    35    36   ar
     8    36    37   ar
     9    37    38   ar
    10    38    31    1
    11    31    24    1
    12    24    25   ar
    13    25    26   ar
    14    26    22    1
    15    22     1    1
    16     1     2   ar
    17     2     3   ar
    18     3     4   ar
    19     4     5   ar
    20     5     6   ar
    21     6    44    1
    22    44    45    1
    23     5     7    1
    24     7     8    1
    25     8     9    1
    26     9    10    1
    27    10    12    1
    28    12    13    1
    29    13    14    1
    30    14    15    1
    31    15    18    1
    32    18    19    1
    33    19    20    1
    34    15    16    1
    35    16    17    1
    36    10    11    1
    37    26    27   ar
    38    27    28   ar
    39    28    29   ar
    40    29    30    1
    41    38    33   ar
    42    29    24   ar
    43     6     1   ar
    44    17    12    1
    45    11     4    1
    46    40    43    1
    47    31    32    1
    48    22    23    1
    49    20    21    1
@<TRIPOS>MOLECULE
*****
 45 49 0 0 0
SMALL
GASTEIGER

@<TRIPOS>ATOM
      1 C          63.0109   89.4573   13.1616 C.ar    1  UNL1        0.0846
      2 C          62.4953   88.8898   11.8723 C.ar    1  UNL1        0.0174
      3 C          62.5446   87.4101   11.6312 C.ar    1  UNL1       -0.0031
      4 C          63.1095   86.4979   12.6795 C.ar    1  UNL1       -0.0218
      5 C          63.6250   87.0653   13.9687 C.ar    1  UNL1        0.0091
      6 C          63.5758   88.5450   14.2098 C.ar    1  UNL1        0.1477
      7 C          64.2237   86.3395   15.1369 C.3     1  UNL1        0.0292
      8 C          64.4547   84.8668   15.3043 C.3     1  UNL1        0.0062
      9 C          64.1441   83.7564   14.3450 C.3     1  UNL1        0.0166
     10 C          63.5257   83.8443   12.9812 C.3     1  UNL1        0.0619
     11 C          63.0653   85.0644   12.2399 C.3     1  UNL1        0.0421
     12 N          63.3437   82.5397   12.2637 N.3     1  UNL1       -0.2713
     13 C          63.6676   82.4356   10.8028 C.3     1  UNL1        0.0896
     14 C          63.4856   81.1308   10.0854 C.3     1  UNL1        0.0897
     15 N          62.9797   79.9303   10.8288 N.3     1  UNL1       -0.2682
     16 C          62.6558   80.0344   12.2898 C.3     1  UNL1        0.0897
     17 C          62.8378   81.3391   13.0072 C.3     1  UNL1        0.0896
     18 C          62.7977   78.6256   10.1114 C.3     1  UNL1        0.1043
     19 C          62.8108   77.3382   10.8812 C.3     1  UNL1        0.1544
     20 O          62.8692   76.0289   10.1518 O.3     1  UNL1       -0.3805
     21 H          62.0525   75.9055    9.6430 H       1  UNL1        0.2105
     22 N          62.9616   90.9369   13.4026 N.pl3   1  UNL1       -0.2801
     23 H          62.1322   91.4371   13.2257 H       1  UNL1        0.1552
     24 C          66.3373   93.0231   13.4595 C.ar    1  UNL1        0.1472
     25 N          65.1229   92.3055   12.9490 N.ar    1  UNL1       -0.1976
     26 C          64.1759   91.6545   13.9131 C.ar    1  UNL1        0.2220
     27 N          64.4432   91.7212   15.3876 N.ar    1  UNL1       -0.2110
     28 C          65.6574   92.4387   15.8981 C.ar    1  UNL1        0.1160
     29 C          66.6045   93.0897   14.9340 C.ar    1  UNL1        0.1085
     30 CL         67.8188   93.8072   15.4445 Cl      1  UNL1       -0.0777
     31 N          67.2843   93.6740   12.4954 N.pl3   1  UNL1       -0.2970
     32 H          68.2488   93.4839   12.5486 H       1  UNL1        0.1536
     33 C          66.9591   94.3045    9.9960 C.ar    1  UNL1        0.0668
     34 C          66.4365   95.2451    8.9509 C.ar    1  UNL1        0.0058
     35 C          65.7165   96.4958    9.3602 C.ar    1  UNL1        0.0002
     36 C          65.5190   96.8059   10.8144 C.ar    1  UNL1        0.0013
     37 C          66.0416   95.8653   11.8595 C.ar    1  UNL1        0.0148
     38 C          66.7617   94.6146   11.4503 C.ar    1  UNL1        0.0537
     39 C          69.2543   91.7991    7.9453 C.3     1  UNL1        0.1109
     40 N          68.5342   93.0498    8.3545 N.am    1  UNL1       -0.2991
     41 C          67.6791   93.0539    9.5869 C.2     1  UNL1        0.2471
     42 O          67.5441   91.8073   10.4101 O.2     1  UNL1       -0.2701
     43 H          68.6229   93.8680    7.8142 H       1  UNL1        0.1498
     44 O          64.0913   89.1124   15.4991 O.3     1  UNL1       -0.4705
     45 C          63.1800   89.2291   16.6847 C.3     1  UNL1        0.2525
@<TRIPOS>BOND
     1    39    40    1
     2    40    41   am
     3    41    42    2
     4    41    33    1
     5    33    34   ar
     6    34    35   ar
     7    35    36   ar
     8    36    37   ar
     9    37    38   ar
    10    38    31    1
    11    31    24    1
    12    24    25   ar
    13    25    26   ar
    14    26    22    1
    15    22     1    1
    16     1     2   ar
    17     2     3   ar
    18     3     4   ar
    19     4     5   ar
    20     5     6   ar
    21     6    44    1
    22    44    45    1
    23     5     7    1
    24     7     8    1
    25     8     9    1
    26     9    10    1
    27    10    12    1
    28    12    13    1
    29    13    14    1
    30    14    15    1
    31    15    18    1
    32    18    19    1
    33    19    20    1
    34    15    16    1
    35    16    17    1
    36    10    11    1
    37    26    27   ar
    38    27    28   ar
    39    28    29   ar
    40    29    30    1
    41    38    33   ar
    42    29    24   ar
    43     6     1   ar
    44    17    12    1
    45    11     4    1
    46    40    43    1
    47    31    32    1
    48    22    23    1
    49    20    21    1
@<TRIPOS>MOLECULE
*****
 45 49 0 0 0
SMALL
GASTEIGER

@<TRIPOS>ATOM
      1 C          62.3563   93.2499    1.7013 C.ar    1  UNL1        0.0846
      2 C          63.3207   92.3219    2.3786 C.ar    1  UNL1        0.0174
      3 C          62.8597   91.4622    3.5181 C.ar    1  UNL1       -0.0031
      4 C          61.4342   91.5306    3.9802 C.ar    1  UNL1       -0.0218
      5 C          60.4699   92.4585    3.3028 C.ar    1  UNL1        0.0091
      6 C          60.9309   93.3182    2.1634 C.ar    1  UNL1        0.1477
      7 C          59.0171   92.6799    3.6034 C.3     1  UNL1        0.0292
      8 C          58.1698   92.0279    4.6557 C.3     1  UNL1        0.0062
      9 C          58.5661   90.9937    5.6671 C.3     1  UNL1        0.0166
     10 C          59.9076   90.3558    5.8762 C.3     1  UNL1        0.0619
     11 C          61.1840   90.5947    5.1255 C.3     1  UNL1        0.0421
     12 N          59.9825   89.3454    6.9823 N.3     1  UNL1       -0.2713
     13 C          59.5175   87.9389    6.7461 C.3     1  UNL1        0.0896
     14 C          59.5924   86.9285    7.8523 C.3     1  UNL1        0.0897
     15 N          60.1323   87.3245    9.1946 N.3     1  UNL1       -0.2682
     16 C          60.5972   88.7310    9.4308 C.3     1  UNL1        0.0897
     17 C          60.5223   89.7414    8.3246 C.3     1  UNL1        0.0896
     18 C          60.2072   86.3142   10.3007 C.3     1  UNL1        0.1043
     19 C          61.5419   85.8673   10.8191 C.3     1  UNL1        0.1544
     20 O          62.2805   86.7113   11.8152 O.3     1  UNL1       -0.3805
     21 H          62.5397   87.5488   11.4001 H       1  UNL1        0.2105
     22 N          62.8174   94.1096    0.5618 N.pl3   1  UNL1       -0.2801
     23 H          63.5774   94.7233    0.6843 H       1  UNL1        0.1552
     24 C          60.0922   93.2764   -2.2004 C.ar    1  UNL1        0.1472
     25 N          60.7892   93.3518   -0.8742 N.ar    1  UNL1       -0.1976
     26 C          62.1205   94.0342   -0.7643 C.ar    1  UNL1        0.2220
     27 N          62.7548   94.6411   -1.9806 N.ar    1  UNL1       -0.2110
     28 C          62.0580   94.5657   -3.3067 C.ar    1  UNL1        0.1160
     29 C          60.7267   93.8833   -3.4166 C.ar    1  UNL1        0.1085
     30 CL         60.0297   93.8079   -4.7428 Cl      1  UNL1       -0.0777
     31 N          58.7610   92.5941   -2.3102 N.pl3   1  UNL1       -0.2970
     32 H          58.7114   91.6109   -2.3245 H       1  UNL1        0.1536
     33 C          56.5871   93.2486   -3.5735 C.ar    1  UNL1        0.0668
     34 C          55.3313   94.0643   -3.6616 C.ar    1  UNL1        0.0058
     35 C          54.9936   95.0411   -2.5744 C.ar    1  UNL1        0.0002
     36 C          55.9117   95.2022   -1.3992 C.ar    1  UNL1        0.0013
     37 C          57.1675   94.3866   -1.3111 C.ar    1  UNL1        0.0148
     38 C          57.5052   93.4097   -2.3983 C.ar    1  UNL1        0.0537
     39 C          57.2219   91.7273   -7.1836 C.3     1  UNL1        0.1109
     40 N          56.8843   92.7040   -6.0964 N.am    1  UNL1       -0.2991
     41 C          56.9247   92.2718   -4.6606 C.2     1  UNL1        0.2471
     42 O          57.3028   90.8628   -4.3120 O.2     1  UNL1       -0.2701
     43 H          56.6361   93.6289   -6.3253 H       1  UNL1        0.1498
     44 O          59.9665   94.2462    1.4860 O.3     1  UNL1       -0.4705
     45 C          60.0482   95.7234    1.7328 C.3     1  UNL1        0.2525
@<TRIPOS>BOND
     1    39    40    1
     2    40    41   am
     3    41    42    2
     4    41    33    1
     5    33    34   ar
     6    34    35   ar
     7    35    36   ar
     8    36    37   ar
     9    37    38   ar
    10    38    31    1
    11    31    24    1
    12    24    25   ar
    13    25    26   ar
    14    26    22    1
    15    22     1    1
    16     1     2   ar
    17     2     3   ar
    18     3     4   ar
    19     4     5   ar
    20     5     6   ar
    21     6    44    1
    22    44    45    1
    23     5     7    1
    24     7     8    1
    25     8     9    1
    26     9    10    1
    27    10    12    1
    28    12    13    1
    29    13    14    1
    30    14    15    1
    31    15    18    1
    32    18    19    1
    33    19    20    1
    34    15    16    1
    35    16    17    1
    36    10    11    1
    37    26    27   ar
    38    27    28   ar
    39    28    29   ar
    40    29    30    1
    41    38    33   ar
    42    29    24   ar
    43     6     1   ar
    44    17    12    1
    45    11     4    1
    46    40    43    1
    47    31    32    1
    48    22    23    1
    49    20    21    1
@<TRIPOS>MOLECULE
*****
 45 49 0 0 0
SMALL
GASTEIGER

@<TRIPOS>ATOM
      1 C          61.6512   90.2639   10.3245 C.ar    1  UNL1        0.0846
      2 C          62.7641   91.1196    9.7961 C.ar    1  UNL1        0.0174
      3 C          63.8757   91.5507   10.7063 C.ar    1  UNL1       -0.0031
      4 C          63.8743   91.1260   12.1450 C.ar    1  UNL1       -0.0218
      5 C          62.7615   90.2703   12.6733 C.ar    1  UNL1        0.0091
      6 C          61.6499   89.8392   11.7632 C.ar    1  UNL1        0.1477
      7 C          62.5688   89.7397   14.0631 C.3     1  UNL1        0.0292
      8 C          63.4414   89.9338   15.2677 C.3     1  UNL1        0.0062
      9 C          64.7222   90.7063   15.3799 C.3     1  UNL1        0.0166
     10 C          65.4468   91.4757   14.3155 C.3     1  UNL1        0.0619
     11 C          65.0694   91.6625   12.8758 C.3     1  UNL1        0.0421
     12 N          66.7165   92.1470   14.7479 N.3     1  UNL1       -0.2713
     13 C          66.7331   92.9942   15.9856 C.3     1  UNL1        0.0896
     14 C          68.0029   93.6656   16.4180 C.3     1  UNL1        0.0897
     15 N          69.2561   93.4897   15.6127 N.3     1  UNL1       -0.2682
     16 C          69.2395   92.6425   14.3749 C.3     1  UNL1        0.0897
     17 C          67.9697   91.9712   13.9425 C.3     1  UNL1        0.0896
     18 C          70.5259   94.1611   16.0451 C.3     1  UNL1        0.1043
     19 C          70.9081   95.4893   15.4622 C.3     1  UNL1        0.1544
     20 O          72.3088   95.7208   14.9782 O.3     1  UNL1       -0.3805
     21 H          72.9199   95.6919   15.7309 H       1  UNL1        0.2105
     22 N          60.5396   89.8328    9.4143 N.pl3   1  UNL1       -0.2801
     23 H          59.7923   90.4453    9.2256 H       1  UNL1        0.1552
     24 C          61.5020   86.0456    8.7207 C.ar    1  UNL1        0.1472
     25 N          61.4750   87.4099    9.3435 N.ar    1  UNL1       -0.1976
     26 C          60.5666   88.4684    8.7915 C.ar    1  UNL1        0.2220
     27 N          59.6854   88.1625    7.6168 N.ar    1  UNL1       -0.2110
     28 C          59.7124   86.7982    6.9941 C.ar    1  UNL1        0.1160
     29 C          60.6207   85.7397    7.5460 C.ar    1  UNL1        0.1085
     30 CL         60.6478   84.3753    6.9233 Cl      1  UNL1       -0.0777
     31 N          62.4103   84.9872    9.2727 N.pl3   1  UNL1       -0.2970
     32 H          62.7211   84.2542    8.6936 H       1  UNL1        0.1536
     33 C          63.4787   83.8465   11.3482 C.ar    1  UNL1        0.0668
     34 C          63.9135   83.9049   12.7826 C.ar    1  UNL1        0.0058
     35 C          63.7148   85.1624   13.5759 C.ar    1  UNL1        0.0002
     36 C          63.0813   86.3615   12.9349 C.ar    1  UNL1        0.0013
     37 C          62.6465   86.3030   11.5005 C.ar    1  UNL1        0.0148
     38 C          62.8451   85.0456   10.7071 C.ar    1  UNL1        0.0537
     39 C          63.0804   80.1034   10.0910 C.3     1  UNL1        0.1109
     40 N          62.8818   81.3609   10.8843 N.am    1  UNL1       -0.2991
     41 C          63.6773   82.5891   10.5549 C.2     1  UNL1        0.2471
     42 O          64.6716   82.5599    9.4322 O.2     1  UNL1       -0.2701
     43 H          62.2292   81.3801   11.6212 H       1  UNL1        0.1498
     44 O          60.5370   88.9835   12.2916 O.3     1  UNL1       -0.4705
     45 C          59.1400   89.5257   12.3564 C.3     1  UNL1        0.2525
@<TRIPOS>BOND
     1    39    40    1
     2    40    41   am
     3    41    42    2
     4    41    33    1
     5    33    34   ar
     6    34    35   ar
     7    35    36   ar
     8    36    37   ar
     9    37    38   ar
    10    38    31    1
    11    31    24    1
    12    24    25   ar
    13    25    26   ar
    14    26    22    1
    15    22     1    1
    16     1     2   ar
    17     2     3   ar
    18     3     4   ar
    19     4     5   ar
    20     5     6   ar
    21     6    44    1
    22    44    45    1
    23     5     7    1
    24     7     8    1
    25     8     9    1
    26     9    10    1
    27    10    12    1
    28    12    13    1
    29    13    14    1
    30    14    15    1
    31    15    18    1
    32    18    19    1
    33    19    20    1
    34    15    16    1
    35    16    17    1
    36    10    11    1
    37    26    27   ar
    38    27    28   ar
    39    28    29   ar
    40    29    30    1
    41    38    33   ar
    42    29    24   ar
    43     6     1   ar
    44    17    12    1
    45    11     4    1
    46    40    43    1
    47    31    32    1
    48    22    23    1
    49    20    21    1
