@<TRIPOS>MOLECULE
*****
 31 34 0 0 0
SMALL
GASTEIGER

@<TRIPOS>ATOM
      1 C          62.9578   85.9474   12.5489 C.3     1  UNL1        0.1160
      2 C          63.5879   87.1950   13.0932 C.ar    1  UNL1        0.0960
      3 N          63.8312   88.6499   12.8209 N.ar    1  UNL1       -0.1681
      4 N          64.6074   89.2138   13.9739 N.ar    1  UNL1       -0.2287
      5 C          64.8438   88.1075   14.9589 C.ar    1  UNL1        0.0990
      6 C          64.2137   86.8598   14.4146 C.ar    1  UNL1        0.0337
      7 C          63.9704   85.4049   14.6869 C.3     1  UNL1        0.1220
      8 N          63.1942   84.8410   13.5338 N.pl3   1  UNL1       -0.2853
      9 C          65.0666   90.6346   14.1169 C.ar    1  UNL1        0.0841
     10 C          65.2109   91.2425   15.4806 C.ar    1  UNL1        0.0192
     11 C          65.6701   92.6634   15.6236 C.ar    1  UNL1        0.0029
     12 C          65.9850   93.4763   14.4029 C.ar    1  UNL1        0.0184
     13 C          65.8407   92.8684   13.0392 C.ar    1  UNL1        0.1072
     14 C          65.3815   91.4475   12.8963 C.ar    1  UNL1        0.0375
     15 S          66.1555   93.6812   11.8186 S.O2    1  UNL1        0.0105
     16 C          66.4704   94.4940   10.5978 C.3     1  UNL1        0.1816
     17 O          66.1695   94.9281   12.6523 O.2     1  UNL1       -0.1686
     18 O          66.1416   92.4343   10.9847 O.2     1  UNL1       -0.1686
     19 C          62.7350   83.4202   13.3908 C.ar    1  UNL1        0.1354
     20 C          63.0844   82.6395   12.1585 C.ar    1  UNL1        0.0574
     21 C          62.6253   81.2187   12.0156 C.ar    1  UNL1        0.1571
     22 N          61.8167   80.5786   13.1048 N.ar    1  UNL1       -0.2199
     23 C          61.4673   81.3592   14.3371 C.ar    1  UNL1        0.2000
     24 N          61.9265   82.7801   14.4800 N.ar    1  UNL1       -0.2090
     25 C          62.9747   80.4380   10.7833 C.3     1  UNL1        0.4350
     26 F          63.3241   79.6573    9.5510 F       1  UNL1       -0.1644
     27 F          62.5347   79.1734   11.4597 F       1  UNL1       -0.1644
     28 F          63.4147   81.7024   10.1069 F       1  UNL1       -0.1644
     29 C          62.7808   84.9797   10.1443 C.3     1  UNL1        0.0021
     30 C          62.2208   85.8271   11.2480 C.3     1  UNL1        0.0240
     31 C          60.9237   86.5542   11.0509 C.3     1  UNL1        0.0021
@<TRIPOS>BOND
     1    29    30    1
     2    30    31    1
     3     1    30    1
     4     1     2    1
     5     2     3   ar
     6     3     4   ar
     7     4     9    1
     8     9    10   ar
     9    10    11   ar
    10    11    12   ar
    11    12    13   ar
    12    13    15    1
    13    15    16    1
    14    15    17    2
    15    15    18    2
    16    13    14   ar
    17     4     5   ar
    18     5     6   ar
    19     6     7    1
    20     7     8    1
    21     8    19    1
    22    19    20   ar
    23    20    21   ar
    24    21    25    1
    25    25    26    1
    26    25    27    1
    27    25    28    1
    28    21    22   ar
    29    22    23   ar
    30    23    24   ar
    31     8     1    1
    32    24    19   ar
    33     6     2   ar
    34    14     9   ar
@<TRIPOS>MOLECULE
*****
 31 34 0 0 0
SMALL
GASTEIGER

@<TRIPOS>ATOM
      1 C          62.5303   87.3279   11.4574 C.3     1  UNL1        0.1160
      2 C          63.1206   88.4582   12.2473 C.ar    1  UNL1        0.0960
      3 N          63.8960   88.7984   13.4855 N.ar    1  UNL1       -0.1681
      4 N          64.0758   90.2870   13.5253 N.ar    1  UNL1       -0.2287
      5 C          63.4116   90.8669   12.3118 C.ar    1  UNL1        0.0990
      6 C          62.8213   89.7366   11.5219 C.ar    1  UNL1        0.0337
      7 C          62.0459   89.3964   10.2837 C.3     1  UNL1        0.1220
      8 N          61.8661   87.9077   10.2438 N.pl3   1  UNL1       -0.2853
      9 C          64.7937   91.0602   14.5916 C.ar    1  UNL1        0.0841
     10 C          64.0797   91.4335   15.8568 C.ar    1  UNL1        0.0192
     11 C          64.7978   92.2066   16.9230 C.ar    1  UNL1        0.0029
     12 C          66.2297   92.6065   16.7240 C.ar    1  UNL1        0.0184
     13 C          66.9437   92.2332   15.4587 C.ar    1  UNL1        0.1072
     14 C          66.2257   91.4600   14.3925 C.ar    1  UNL1        0.0375
     15 S          68.3756   92.6330   15.2596 S.O2    1  UNL1        0.0105
     16 C          69.8076   93.0328   15.0604 C.3     1  UNL1        0.1816
     17 O          68.6829   92.2369   16.6733 O.2     1  UNL1       -0.1686
     18 O          68.0684   93.0291   13.8458 O.2     1  UNL1       -0.1686
     19 C          61.1482   87.1346    9.1777 C.ar    1  UNL1        0.1354
     20 C          61.9129   86.2083    8.2792 C.ar    1  UNL1        0.0574
     21 C          61.1950   85.4352    7.2130 C.ar    1  UNL1        0.1571
     22 N          59.7122   85.5884    7.0452 N.ar    1  UNL1       -0.2199
     23 C          58.9475   86.5147    7.9436 C.ar    1  UNL1        0.2000
     24 N          59.6655   87.2878    9.0098 N.ar    1  UNL1       -0.2090
     25 C          61.9597   84.5089    6.3145 C.3     1  UNL1        0.4350
     26 F          62.7244   83.5826    5.4161 F       1  UNL1       -0.1644
     27 F          60.6907   84.1588    5.5954 F       1  UNL1       -0.1644
     28 F          63.2286   84.8590    7.0337 F       1  UNL1       -0.1644
     29 C          61.9642   84.8501   10.9190 C.3     1  UNL1        0.0021
     30 C          62.5932   85.8732   11.8177 C.3     1  UNL1        0.0240
     31 C          63.2850   85.4416   13.0768 C.3     1  UNL1        0.0021
@<TRIPOS>BOND
     1    29    30    1
     2    30    31    1
     3     1    30    1
     4     1     2    1
     5     2     3   ar
     6     3     4   ar
     7     4     9    1
     8     9    10   ar
     9    10    11   ar
    10    11    12   ar
    11    12    13   ar
    12    13    15    1
    13    15    16    1
    14    15    17    2
    15    15    18    2
    16    13    14   ar
    17     4     5   ar
    18     5     6   ar
    19     6     7    1
    20     7     8    1
    21     8    19    1
    22    19    20   ar
    23    20    21   ar
    24    21    25    1
    25    25    26    1
    26    25    27    1
    27    25    28    1
    28    21    22   ar
    29    22    23   ar
    30    23    24   ar
    31     8     1    1
    32    24    19   ar
    33     6     2   ar
    34    14     9   ar
@<TRIPOS>MOLECULE
*****
 31 34 0 0 0
SMALL
GASTEIGER

@<TRIPOS>ATOM
      1 C          63.2337   84.4792   12.8169 C.3     1  UNL1        0.1160
      2 C          63.4894   85.7333   13.5990 C.ar    1  UNL1        0.0960
      3 N          63.7379   87.2079   13.4806 N.ar    1  UNL1       -0.1681
      4 N          63.9033   87.7626   14.8644 N.ar    1  UNL1       -0.2287
      5 C          63.7570   86.6309   15.8380 C.ar    1  UNL1        0.0990
      6 C          63.5013   85.3767   15.0559 C.ar    1  UNL1        0.0337
      7 C          63.2528   83.9022   15.1743 C.3     1  UNL1        0.1220
      8 N          63.0874   83.3474   13.7904 N.pl3   1  UNL1       -0.2853
      9 C          64.1684   89.1971   15.2134 C.ar    1  UNL1        0.0841
     10 C          63.4372   89.8387   16.3552 C.ar    1  UNL1        0.0192
     11 C          63.7023   91.2733   16.7041 C.ar    1  UNL1        0.0029
     12 C          64.6986   92.0663   15.9113 C.ar    1  UNL1        0.0184
     13 C          65.4298   91.4247   14.7695 C.ar    1  UNL1        0.1072
     14 C          65.1647   89.9901   14.4206 C.ar    1  UNL1        0.0375
     15 S          66.4261   92.2176   13.9767 S.O2    1  UNL1        0.0105
     16 C          67.4224   93.0105   13.1838 C.3     1  UNL1        0.1816
     17 O          67.5473   91.5346   14.7023 O.2     1  UNL1       -0.1686
     18 O          65.3050   92.9006   13.2510 O.2     1  UNL1       -0.1686
     19 C          62.8223   81.9129   13.4415 C.ar    1  UNL1        0.1354
     20 C          63.0138   81.4361   12.0322 C.ar    1  UNL1        0.0574
     21 C          62.7487   80.0016   11.6832 C.ar    1  UNL1        0.1571
     22 N          62.2921   79.0438   12.7436 N.ar    1  UNL1       -0.2199
     23 C          62.1007   79.5205   14.1528 C.ar    1  UNL1        0.2000
     24 N          62.3658   80.9551   14.5017 N.ar    1  UNL1       -0.2090
     25 C          62.9401   79.5248   10.2739 C.3     1  UNL1        0.4350
     26 F          63.1315   79.0479    8.8647 F       1  UNL1       -0.1644
     27 F          63.2493   80.9274    9.8413 F       1  UNL1       -0.1644
     28 F          62.6309   78.1222   10.7066 F       1  UNL1       -0.1644
     29 C          64.2481   83.7276   10.5462 C.3     1  UNL1        0.0021
     30 C          63.1405   84.3750   11.3234 C.3     1  UNL1        0.0240
     31 C          61.9397   84.9182   10.6071 C.3     1  UNL1        0.0021
@<TRIPOS>BOND
     1    29    30    1
     2    30    31    1
     3     1    30    1
     4     1     2    1
     5     2     3   ar
     6     3     4   ar
     7     4     9    1
     8     9    10   ar
     9    10    11   ar
    10    11    12   ar
    11    12    13   ar
    12    13    15    1
    13    15    16    1
    14    15    17    2
    15    15    18    2
    16    13    14   ar
    17     4     5   ar
    18     5     6   ar
    19     6     7    1
    20     7     8    1
    21     8    19    1
    22    19    20   ar
    23    20    21   ar
    24    21    25    1
    25    25    26    1
    26    25    27    1
    27    25    28    1
    28    21    22   ar
    29    22    23   ar
    30    23    24   ar
    31     8     1    1
    32    24    19   ar
    33     6     2   ar
    34    14     9   ar
@<TRIPOS>MOLECULE
*****
 31 34 0 0 0
SMALL
GASTEIGER

@<TRIPOS>ATOM
      1 C          63.4764   88.6128   12.8728 C.3     1  UNL1        0.1160
      2 C          63.3686   87.1392   13.1315 C.ar    1  UNL1        0.0960
      3 N          62.6807   85.8783   12.6990 N.ar    1  UNL1       -0.1681
      4 N          63.1942   84.7549   13.5500 N.ar    1  UNL1       -0.2287
      5 C          64.1995   85.3214   14.5084 C.ar    1  UNL1        0.0990
      6 C          64.3072   86.7950   14.2497 C.ar    1  UNL1        0.0337
      7 C          64.9952   88.0559   14.6822 C.3     1  UNL1        0.1220
      8 N          64.4817   89.1794   13.8311 N.pl3   1  UNL1       -0.2853
      9 C          62.7759   83.3173   13.4587 C.ar    1  UNL1        0.0841
     10 C          62.0640   82.6688   14.6088 C.ar    1  UNL1        0.0192
     11 C          61.6457   81.2312   14.5174 C.ar    1  UNL1        0.0029
     12 C          61.9393   80.4421   13.2760 C.ar    1  UNL1        0.0184
     13 C          62.6512   81.0905   12.1260 C.ar    1  UNL1        0.1072
     14 C          63.0694   82.5282   12.2174 C.ar    1  UNL1        0.0375
     15 S          62.9448   80.3015   10.8845 S.O2    1  UNL1        0.0105
     16 C          63.2384   79.5125    9.6431 C.3     1  UNL1        0.1816
     17 O          62.4896   79.0489   11.5729 O.2     1  UNL1       -0.1686
     18 O          63.4000   81.5541   10.1961 O.2     1  UNL1       -0.1686
     19 C          64.9000   90.6169   13.9225 C.ar    1  UNL1        0.1354
     20 C          65.1072   91.4187   12.6717 C.ar    1  UNL1        0.0574
     21 C          65.5255   92.8562   12.7630 C.ar    1  UNL1        0.1571
     22 N          65.7366   93.4921   14.1051 N.ar    1  UNL1       -0.2199
     23 C          65.5294   92.6904   15.3559 C.ar    1  UNL1        0.2000
     24 N          65.1111   91.2528   15.2645 N.ar    1  UNL1       -0.2090
     25 C          65.7328   93.6580   11.5123 C.3     1  UNL1        0.4350
     26 F          65.9400   94.4598   10.2616 F       1  UNL1       -0.1644
     27 F          65.1695   92.5318   10.6970 F       1  UNL1       -0.1644
     28 F          66.2960   94.7841   12.3276 F       1  UNL1       -0.1644
     29 C          61.5367   90.2222   12.2427 C.3     1  UNL1        0.0021
     30 C          62.7130   89.3844   11.8375 C.3     1  UNL1        0.0240
     31 C          63.1259   89.3181   10.3969 C.3     1  UNL1        0.0021
@<TRIPOS>BOND
     1    29    30    1
     2    30    31    1
     3     1    30    1
     4     1     2    1
     5     2     3   ar
     6     3     4   ar
     7     4     9    1
     8     9    10   ar
     9    10    11   ar
    10    11    12   ar
    11    12    13   ar
    12    13    15    1
    13    15    16    1
    14    15    17    2
    15    15    18    2
    16    13    14   ar
    17     4     5   ar
    18     5     6   ar
    19     6     7    1
    20     7     8    1
    21     8    19    1
    22    19    20   ar
    23    20    21   ar
    24    21    25    1
    25    25    26    1
    26    25    27    1
    27    25    28    1
    28    21    22   ar
    29    22    23   ar
    30    23    24   ar
    31     8     1    1
    32    24    19   ar
    33     6     2   ar
    34    14     9   ar
@<TRIPOS>MOLECULE
*****
 31 34 0 0 0
SMALL
GASTEIGER

@<TRIPOS>ATOM
      1 C          63.0708   85.0217   12.7988 C.3     1  UNL1        0.1160
      2 C          63.5035   86.3179   13.4175 C.ar    1  UNL1        0.0960
      3 N          63.7440   87.7729   13.1431 N.ar    1  UNL1       -0.1681
      4 N          64.2034   88.4152   14.4184 N.ar    1  UNL1       -0.2287
      5 C          64.2469   87.3572   15.4809 C.ar    1  UNL1        0.0990
      6 C          63.8142   86.0610   14.8622 C.ar    1  UNL1        0.0337
      7 C          63.5737   84.6061   15.1366 C.3     1  UNL1        0.1220
      8 N          63.1142   83.9637   13.8612 N.pl3   1  UNL1       -0.2853
      9 C          64.5574   89.8615   14.5995 C.ar    1  UNL1        0.0841
     10 C          64.3478   90.5242   15.9287 C.ar    1  UNL1        0.0192
     11 C          64.7018   91.9706   16.1097 C.ar    1  UNL1        0.0029
     12 C          65.2652   92.7543   14.9615 C.ar    1  UNL1        0.0184
     13 C          65.4748   92.0916   13.6323 C.ar    1  UNL1        0.1072
     14 C          65.1209   90.6452   13.4513 C.ar    1  UNL1        0.0375
     15 S          66.0383   92.8752   12.4841 S.O2    1  UNL1        0.0105
     16 C          66.6017   93.6587   11.3358 C.3     1  UNL1        0.1816
     17 O          67.1792   93.3224   13.3490 O.2     1  UNL1       -0.1686
     18 O          64.8973   92.4279   11.6190 O.2     1  UNL1       -0.1686
     19 C          62.7603   82.5174   13.6802 C.ar    1  UNL1        0.1354
     20 C          61.3940   82.0266   14.0578 C.ar    1  UNL1        0.0574
     21 C          61.0401   80.5803   13.8768 C.ar    1  UNL1        0.1571
     22 N          62.0525   79.6246   13.3181 N.ar    1  UNL1       -0.2199
     23 C          63.4187   80.1154   12.9406 C.ar    1  UNL1        0.2000
     24 N          63.7726   81.5618   13.1216 N.ar    1  UNL1       -0.2090
     25 C          59.6739   80.0895   14.2544 C.3     1  UNL1        0.4350
     26 F          58.3076   79.5987   14.6319 F       1  UNL1       -0.1644
     27 F          60.1735   78.6754   14.2242 F       1  UNL1       -0.1644
     28 F          59.1743   81.5035   14.2845 F       1  UNL1       -0.1644
     29 C          63.3772   83.8035   10.5246 C.3     1  UNL1        0.0021
     30 C          62.6659   84.8191   11.3688 C.3     1  UNL1        0.0240
     31 C          61.5496   85.6320   10.7830 C.3     1  UNL1        0.0021
@<TRIPOS>BOND
     1    29    30    1
     2    30    31    1
     3     1    30    1
     4     1     2    1
     5     2     3   ar
     6     3     4   ar
     7     4     9    1
     8     9    10   ar
     9    10    11   ar
    10    11    12   ar
    11    12    13   ar
    12    13    15    1
    13    15    16    1
    14    15    17    2
    15    15    18    2
    16    13    14   ar
    17     4     5   ar
    18     5     6   ar
    19     6     7    1
    20     7     8    1
    21     8    19    1
    22    19    20   ar
    23    20    21   ar
    24    21    25    1
    25    25    26    1
    26    25    27    1
    27    25    28    1
    28    21    22   ar
    29    22    23   ar
    30    23    24   ar
    31     8     1    1
    32    24    19   ar
    33     6     2   ar
    34    14     9   ar
@<TRIPOS>MOLECULE
*****
 31 34 0 0 0
SMALL
GASTEIGER

@<TRIPOS>ATOM
      1 C          61.6479   87.9757   10.7445 C.3     1  UNL1        0.1160
      2 C          61.0078   88.4341    9.4677 C.ar    1  UNL1        0.0960
      3 N          60.5035   89.6369    8.7267 N.ar    1  UNL1       -0.1681
      4 N          59.9721   89.1758    7.4019 N.ar    1  UNL1       -0.2287
      5 C          60.1480   87.6882    7.3241 C.ar    1  UNL1        0.0990
      6 C          60.7881   87.2298    8.6009 C.ar    1  UNL1        0.0337
      7 C          61.2924   86.0271    9.3419 C.3     1  UNL1        0.1220
      8 N          61.8239   86.4880   10.6668 N.pl3   1  UNL1       -0.2853
      9 C          59.3704   90.0491    6.3411 C.ar    1  UNL1        0.0841
     10 C          57.8804   90.1906    6.2421 C.ar    1  UNL1        0.0192
     11 C          57.2788   91.0639    5.1812 C.ar    1  UNL1        0.0029
     12 C          58.1672   91.7958    4.2194 C.ar    1  UNL1        0.0184
     13 C          59.6572   91.6543    4.3183 C.ar    1  UNL1        0.1072
     14 C          60.2588   90.7810    5.3792 C.ar    1  UNL1        0.0375
     15 S          60.5456   92.3862    3.3565 S.O2    1  UNL1        0.0105
     16 C          61.4340   93.1180    2.3947 C.3     1  UNL1        0.1816
     17 O          61.7460   91.7123    3.9524 O.2     1  UNL1       -0.1686
     18 O          59.3452   93.0600    2.7606 O.2     1  UNL1       -0.1686
     19 C          62.4255   85.6148   11.7275 C.ar    1  UNL1        0.1354
     20 C          62.3315   84.1221   11.6126 C.ar    1  UNL1        0.0574
     21 C          62.9331   83.2488   12.6733 C.ar    1  UNL1        0.1571
     22 N          63.6288   83.8681   13.8492 N.ar    1  UNL1       -0.2199
     23 C          63.7229   85.3608   13.9642 C.ar    1  UNL1        0.2000
     24 N          63.1212   86.2340   12.9033 N.ar    1  UNL1       -0.2090
     25 C          62.8391   81.7561   12.5584 C.3     1  UNL1        0.4350
     26 F          62.7451   80.2635   12.4435 F       1  UNL1       -0.1644
     27 F          62.7678   81.8756   11.0648 F       1  UNL1       -0.1644
     28 F          62.9105   81.6367   14.0519 F       1  UNL1       -0.1644
     29 C          63.4854   88.9659   12.2915 C.3     1  UNL1        0.0021
     30 C          62.0428   88.8512   11.8967 C.3     1  UNL1        0.0240
     31 C          60.9952   89.6119   12.6541 C.3     1  UNL1        0.0021
@<TRIPOS>BOND
     1    29    30    1
     2    30    31    1
     3     1    30    1
     4     1     2    1
     5     2     3   ar
     6     3     4   ar
     7     4     9    1
     8     9    10   ar
     9    10    11   ar
    10    11    12   ar
    11    12    13   ar
    12    13    15    1
    13    15    16    1
    14    15    17    2
    15    15    18    2
    16    13    14   ar
    17     4     5   ar
    18     5     6   ar
    19     6     7    1
    20     7     8    1
    21     8    19    1
    22    19    20   ar
    23    20    21   ar
    24    21    25    1
    25    25    26    1
    26    25    27    1
    27    25    28    1
    28    21    22   ar
    29    22    23   ar
    30    23    24   ar
    31     8     1    1
    32    24    19   ar
    33     6     2   ar
    34    14     9   ar
@<TRIPOS>MOLECULE
*****
 31 34 0 0 0
SMALL
GASTEIGER

@<TRIPOS>ATOM
      1 C          63.7011   88.9988   13.4257 C.3     1  UNL1        0.1160
      2 C          63.6717   87.5150   13.2079 C.ar    1  UNL1        0.0960
      3 N          63.2329   86.4357   12.2631 N.ar    1  UNL1       -0.1681
      4 N          63.6240   85.1142   12.8554 N.ar    1  UNL1       -0.2287
      5 C          64.3044   85.3768   14.1662 C.ar    1  UNL1        0.0990
      6 C          64.3338   86.8606   14.3840 C.ar    1  UNL1        0.0337
      7 C          64.7726   87.9400   15.3288 C.3     1  UNL1        0.1220
      8 N          64.3815   89.2615   14.7365 N.pl3   1  UNL1       -0.2853
      9 C          63.3778   83.7666   12.2443 C.ar    1  UNL1        0.0841
     10 C          63.7629   83.5084   10.8177 C.ar    1  UNL1        0.0192
     11 C          63.5167   82.1608   10.2066 C.ar    1  UNL1        0.0029
     12 C          62.8855   81.0715   11.0220 C.ar    1  UNL1        0.0184
     13 C          62.5005   81.3297   12.4486 C.ar    1  UNL1        0.1072
     14 C          62.7467   82.6773   13.0597 C.ar    1  UNL1        0.0375
     15 S          61.8693   80.2404   13.2641 S.O2    1  UNL1        0.0105
     16 C          61.2382   79.1510   14.0795 C.3     1  UNL1        0.1816
     17 O          61.2278   81.2713   14.1448 O.2     1  UNL1       -0.1686
     18 O          62.5109   79.2094   12.3833 O.2     1  UNL1       -0.1686
     19 C          64.6277   90.6090   15.3476 C.ar    1  UNL1        0.1354
     20 C          65.9536   91.2856   15.1627 C.ar    1  UNL1        0.0574
     21 C          66.1998   92.6331   15.7739 C.ar    1  UNL1        0.1571
     22 N          65.1199   93.3041   16.5700 N.ar    1  UNL1       -0.2199
     23 C          63.7940   92.6276   16.7550 C.ar    1  UNL1        0.2000
     24 N          63.5479   91.2800   16.1437 N.ar    1  UNL1       -0.2090
     25 C          67.5258   93.3097   15.5889 C.3     1  UNL1        0.4350
     26 F          68.8516   93.9863   15.4040 F       1  UNL1       -0.1644
     27 F          68.1413   92.3768   16.5894 F       1  UNL1       -0.1644
     28 F          66.9102   94.2425   14.5885 F       1  UNL1       -0.1644
     29 C          64.0010   91.1959   12.0719 C.3     1  UNL1        0.0021
     30 C          63.1475   90.0376   12.4960 C.3     1  UNL1        0.0240
     31 C          61.7403   89.9181   11.9905 C.3     1  UNL1        0.0021
@<TRIPOS>BOND
     1    29    30    1
     2    30    31    1
     3     1    30    1
     4     1     2    1
     5     2     3   ar
     6     3     4   ar
     7     4     9    1
     8     9    10   ar
     9    10    11   ar
    10    11    12   ar
    11    12    13   ar
    12    13    15    1
    13    15    16    1
    14    15    17    2
    15    15    18    2
    16    13    14   ar
    17     4     5   ar
    18     5     6   ar
    19     6     7    1
    20     7     8    1
    21     8    19    1
    22    19    20   ar
    23    20    21   ar
    24    21    25    1
    25    25    26    1
    26    25    27    1
    27    25    28    1
    28    21    22   ar
    29    22    23   ar
    30    23    24   ar
    31     8     1    1
    32    24    19   ar
    33     6     2   ar
    34    14     9   ar
@<TRIPOS>MOLECULE
*****
 31 34 0 0 0
SMALL
GASTEIGER

@<TRIPOS>ATOM
      1 C          61.3595   89.1860   10.7909 C.3     1  UNL1        0.1160
      2 C          62.2496   89.5706   11.9354 C.ar    1  UNL1        0.0960
      3 N          62.5869   90.6754   12.8923 N.ar    1  UNL1       -0.1681
      4 N          63.6898   90.1928   13.7872 N.ar    1  UNL1       -0.2287
      5 C          64.0341   88.7899   13.3833 C.ar    1  UNL1        0.0990
      6 C          63.1440   88.4053   12.2389 C.ar    1  UNL1        0.0337
      7 C          62.8067   87.3005   11.2820 C.3     1  UNL1        0.1220
      8 N          61.7038   87.7830   10.3870 N.pl3   1  UNL1       -0.2853
      9 C          64.3351   90.9758   14.8920 C.ar    1  UNL1        0.0841
     10 C          63.6278   91.1443   16.2040 C.ar    1  UNL1        0.0192
     11 C          64.2732   91.9273   17.3087 C.ar    1  UNL1        0.0029
     12 C          65.6258   92.5418   17.1015 C.ar    1  UNL1        0.0184
     13 C          66.3330   92.3734   15.7895 C.ar    1  UNL1        0.1072
     14 C          65.6876   91.5904   14.6847 C.ar    1  UNL1        0.0375
     15 S          67.6855   92.9879   15.5821 S.O2    1  UNL1        0.0105
     16 C          69.0381   93.6024   15.3749 C.3     1  UNL1        0.1816
     17 O          67.1043   93.9240   14.5643 O.2     1  UNL1       -0.1686
     18 O          68.2668   92.0518   16.6000 O.2     1  UNL1       -0.1686
     19 C          61.0586   87.0000    9.2823 C.ar    1  UNL1        0.1354
     20 C          61.8982   86.1476    8.3776 C.ar    1  UNL1        0.0574
     21 C          61.2530   85.3646    7.2729 C.ar    1  UNL1        0.1571
     22 N          59.7680   85.4340    7.0727 N.ar    1  UNL1       -0.2199
     23 C          58.9283   86.2864    7.9773 C.ar    1  UNL1        0.2000
     24 N          59.5736   87.0694    9.0821 N.ar    1  UNL1       -0.2090
     25 C          62.0927   84.5121    6.3683 C.3     1  UNL1        0.4350
     26 F          62.9324   83.6597    5.4637 F       1  UNL1       -0.1644
     27 F          60.8692   84.1383    5.5849 F       1  UNL1       -0.1644
     28 F          63.3161   84.8860    7.1516 F       1  UNL1       -0.1644
     29 C          59.3761   90.8477   11.0246 C.3     1  UNL1        0.0021
     30 C          60.3095   90.0523   10.1609 C.3     1  UNL1        0.0240
     31 C          60.1928   90.1231    8.6671 C.3     1  UNL1        0.0021
@<TRIPOS>BOND
     1    29    30    1
     2    30    31    1
     3     1    30    1
     4     1     2    1
     5     2     3   ar
     6     3     4   ar
     7     4     9    1
     8     9    10   ar
     9    10    11   ar
    10    11    12   ar
    11    12    13   ar
    12    13    15    1
    13    15    16    1
    14    15    17    2
    15    15    18    2
    16    13    14   ar
    17     4     5   ar
    18     5     6   ar
    19     6     7    1
    20     7     8    1
    21     8    19    1
    22    19    20   ar
    23    20    21   ar
    24    21    25    1
    25    25    26    1
    26    25    27    1
    27    25    28    1
    28    21    22   ar
    29    22    23   ar
    30    23    24   ar
    31     8     1    1
    32    24    19   ar
    33     6     2   ar
    34    14     9   ar
@<TRIPOS>MOLECULE
*****
 31 34 0 0 0
SMALL
GASTEIGER

@<TRIPOS>ATOM
      1 C          63.6638   88.1283   13.4209 C.3     1  UNL1        0.1160
      2 C          63.4596   86.6498   13.5698 C.ar    1  UNL1        0.0960
      3 N          62.8779   85.4329   12.9133 N.ar    1  UNL1       -0.1681
      4 N          63.1290   84.2575   13.8107 N.ar    1  UNL1       -0.2287
      5 C          63.8659   84.7478   15.0217 C.ar    1  UNL1        0.0990
      6 C          64.0702   86.2264   14.8728 C.ar    1  UNL1        0.0337
      7 C          64.6519   87.4432   15.5293 C.3     1  UNL1        0.1220
      8 N          64.4008   88.6188   14.6319 N.pl3   1  UNL1       -0.2853
      9 C          62.7158   82.8404   13.5439 C.ar    1  UNL1        0.0841
     10 C          61.9584   82.0713   14.5853 C.ar    1  UNL1        0.0192
     11 C          61.5452   80.6542   14.3184 C.ar    1  UNL1        0.0029
     12 C          61.8895   80.0062   13.0101 C.ar    1  UNL1        0.0184
     13 C          62.6470   80.7754   11.9687 C.ar    1  UNL1        0.1072
     14 C          63.0601   82.1925   12.2356 C.ar    1  UNL1        0.0375
     15 S          62.9913   80.1275   10.6604 S.O2    1  UNL1        0.0105
     16 C          63.3356   79.4797    9.3520 C.3     1  UNL1        0.1816
     17 O          62.6051   78.7907   11.2206 O.2     1  UNL1       -0.1686
     18 O          63.3775   81.4644   10.1001 O.2     1  UNL1       -0.1686
     19 C          64.8139   90.0357   14.8988 C.ar    1  UNL1        0.1354
     20 C          66.2266   90.4671   14.6371 C.ar    1  UNL1        0.0574
     21 C          66.6398   91.8840   14.9039 C.ar    1  UNL1        0.1571
     22 N          65.6403   92.8699   15.4325 N.ar    1  UNL1       -0.2199
     23 C          64.2277   92.4387   15.6941 C.ar    1  UNL1        0.2000
     24 N          63.8145   91.0215   15.4273 N.ar    1  UNL1       -0.2090
     25 C          68.0525   92.3153   14.6423 C.3     1  UNL1        0.4350
     26 F          69.4651   92.7466   14.3806 F       1  UNL1       -0.1644
     27 F          68.0788   93.0294   15.9612 F       1  UNL1       -0.1644
     28 F          68.0261   91.6013   13.3234 F       1  UNL1       -0.1644
     29 C          63.5547   90.4282   12.2175 C.3     1  UNL1        0.0021
     30 C          63.2108   88.9689   12.2642 C.3     1  UNL1        0.0240
     31 C          62.4139   88.3503   11.1541 C.3     1  UNL1        0.0021
@<TRIPOS>BOND
     1    29    30    1
     2    30    31    1
     3     1    30    1
     4     1     2    1
     5     2     3   ar
     6     3     4   ar
     7     4     9    1
     8     9    10   ar
     9    10    11   ar
    10    11    12   ar
    11    12    13   ar
    12    13    15    1
    13    15    16    1
    14    15    17    2
    15    15    18    2
    16    13    14   ar
    17     4     5   ar
    18     5     6   ar
    19     6     7    1
    20     7     8    1
    21     8    19    1
    22    19    20   ar
    23    20    21   ar
    24    21    25    1
    25    25    26    1
    26    25    27    1
    27    25    28    1
    28    21    22   ar
    29    22    23   ar
    30    23    24   ar
    31     8     1    1
    32    24    19   ar
    33     6     2   ar
    34    14     9   ar
