@<TRIPOS>MOLECULE
*****
 33 37 0 0 0
SMALL
GASTEIGER

@<TRIPOS>ATOM
      1 C          62.7608   86.7759   11.9242 C.2     1  UNL1        0.2506
      2 O          63.5514   87.4056   13.0326 O.2     1  UNL1       -0.2699
      3 N          61.7908   87.6015   11.1322 N.am    1  UNL1       -0.2724
      4 C          61.0001   86.9718   10.0238 C.3     1  UNL1        0.1231
      5 C          60.0301   87.7974    9.2317 C.3     1  UNL1        0.1351
      6 C          59.2394   87.1677    8.1233 C.3     1  UNL1        0.0339
      7 O          59.8506   89.2526    9.5480 O.3     1  UNL1       -0.3527
      8 C          60.6412   89.8823   10.6563 C.3     1  UNL1        0.1621
      9 C          61.6113   89.0567   11.4484 C.3     1  UNL1        0.1096
     10 C          63.4786   80.9549   10.6592 C.3     1  UNL1        0.0311
     11 C          63.2992   82.4101   10.9754 C.ar    1  UNL1       -0.0203
     12 C          63.1589   83.4075    9.8639 C.ar    1  UNL1       -0.0040
     13 C          62.9795   84.8627   10.1801 C.ar    1  UNL1        0.0058
     14 C          62.9403   85.3206   11.6080 C.ar    1  UNL1        0.0729
     15 C          63.0805   84.3233   12.7195 C.ar    1  UNL1        0.1069
     16 C          63.2600   82.8680   12.4032 C.ar    1  UNL1        0.0168
     17 N          63.0413   84.7812   14.1474 N.ar    1  UNL1       -0.1477
     18 N          64.2004   85.3193   14.9329 N.ar    1  UNL1       -0.1447
     19 C          63.7117   85.6521   16.3114 C.ar    1  UNL1        0.1446
     20 C          62.2504   85.3196   16.3779 C.ar    1  UNL1        0.1446
     21 N          61.8362   84.7814   15.0405 N.ar    1  UNL1       -0.1447
     22 C          62.4019   89.6864   12.5568 C.3     1  UNL1        0.0488
     23 C          63.5021   90.6546   12.2370 C.ar    1  UNL1       -0.0189
     24 C          63.5910   91.2637   10.8692 C.ar    1  UNL1       -0.0041
     25 C          64.6912   92.2319   10.5494 C.ar    1  UNL1        0.0013
     26 C          65.7025   92.5908   11.5974 C.ar    1  UNL1        0.0209
     27 C          65.6136   91.9816   12.9652 C.ar    1  UNL1        0.1026
     28 C          64.5134   91.0135   13.2850 C.ar    1  UNL1        0.0167
     29 N          66.6249   92.3406   14.0134 N.ar    1  UNL1       -0.1478
     30 N          68.1154   92.3128   13.8466 N.ar    1  UNL1       -0.1447
     31 C          68.7349   92.7454   15.1424 C.ar    1  UNL1        0.1446
     32 C          67.6273   93.0405   16.1100 C.ar    1  UNL1        0.1446
     33 N          66.3233   92.7903   15.4122 N.ar    1  UNL1       -0.1447
@<TRIPOS>BOND
     1    10    11    1
     2    11    12   ar
     3    12    13   ar
     4    13    14   ar
     5    14     1    1
     6     1     2    2
     7     1     3   am
     8     3     4    1
     9     4     5    1
    10     5     6    1
    11     5     7    1
    12     7     8    1
    13     8     9    1
    14     9    22    1
    15    22    23    1
    16    23    24   ar
    17    24    25   ar
    18    25    26   ar
    19    26    27   ar
    20    27    29    1
    21    29    30   ar
    22    30    31   ar
    23    31    32   ar
    24    32    33   ar
    25    27    28   ar
    26    14    15   ar
    27    15    17    1
    28    17    18   ar
    29    18    19   ar
    30    19    20   ar
    31    20    21   ar
    32    15    16   ar
    33    16    11   ar
    34     9     3    1
    35    28    23   ar
    36    21    17   ar
    37    33    29   ar
@<TRIPOS>MOLECULE
*****
 33 37 0 0 0
SMALL
GASTEIGER

@<TRIPOS>ATOM
      1 C          63.5284   87.6588   13.2886 C.2     1  UNL1        0.2506
      2 O          63.7317   88.6620   12.1922 O.2     1  UNL1       -0.2699
      3 N          63.3994   88.1178   14.7108 N.am    1  UNL1       -0.2724
      4 C          63.1961   87.1146   15.8073 C.3     1  UNL1        0.1231
      5 C          63.0671   87.5737   17.2294 C.3     1  UNL1        0.1351
      6 C          62.8638   86.5705   18.3259 C.3     1  UNL1        0.0339
      7 O          63.1414   89.0360   17.5552 O.3     1  UNL1       -0.3527
      8 C          63.3447   90.0392   16.4587 C.3     1  UNL1        0.1621
      9 C          63.4737   89.5802   15.0365 C.3     1  UNL1        0.1096
     10 C          63.2312   81.8095   11.9857 C.3     1  UNL1        0.0311
     11 C          63.3055   83.2718   12.3114 C.ar    1  UNL1       -0.0203
     12 C          64.1872   83.7477   13.4276 C.ar    1  UNL1       -0.0040
     13 C          64.2616   85.2100   13.7533 C.ar    1  UNL1        0.0058
     14 C          63.4541   86.1964   12.9629 C.ar    1  UNL1        0.0729
     15 C          62.5723   85.7205   11.8467 C.ar    1  UNL1        0.1069
     16 C          62.4980   84.2582   11.5210 C.ar    1  UNL1        0.0168
     17 N          61.7647   86.7070   11.0562 N.ar    1  UNL1       -0.1477
     18 N          62.0272   87.1282    9.6406 N.ar    1  UNL1       -0.1447
     19 C          60.9777   88.1269    9.2520 C.ar    1  UNL1        0.1446
     20 C          60.0666   88.3229   10.4273 C.ar    1  UNL1        0.1446
     21 N          60.5530   87.4454   11.5424 N.ar    1  UNL1       -0.1447
     22 C          63.6770   90.5834   13.9401 C.3     1  UNL1        0.0488
     23 C          64.9950   91.2859   13.8012 C.ar    1  UNL1       -0.0189
     24 C          66.0991   91.0089   14.7779 C.ar    1  UNL1       -0.0041
     25 C          67.4172   91.7114   14.6390 C.ar    1  UNL1        0.0013
     26 C          67.6311   92.6909   13.5233 C.ar    1  UNL1        0.0209
     27 C          66.5269   92.9679   12.5466 C.ar    1  UNL1        0.1026
     28 C          65.2089   92.2654   12.6855 C.ar    1  UNL1        0.0167
     29 N          66.7408   93.9474   11.4308 N.ar    1  UNL1       -0.1478
     30 N          66.1921   95.3419   11.3645 N.ar    1  UNL1       -0.1447
     31 C          66.6531   95.9607   10.0782 C.ar    1  UNL1        0.1446
     32 C          67.4868   94.9486    9.3495 C.ar    1  UNL1        0.1446
     33 N          67.5409   93.7044   10.1855 N.ar    1  UNL1       -0.1447
@<TRIPOS>BOND
     1    10    11    1
     2    11    12   ar
     3    12    13   ar
     4    13    14   ar
     5    14     1    1
     6     1     2    2
     7     1     3   am
     8     3     4    1
     9     4     5    1
    10     5     6    1
    11     5     7    1
    12     7     8    1
    13     8     9    1
    14     9    22    1
    15    22    23    1
    16    23    24   ar
    17    24    25   ar
    18    25    26   ar
    19    26    27   ar
    20    27    29    1
    21    29    30   ar
    22    30    31   ar
    23    31    32   ar
    24    32    33   ar
    25    27    28   ar
    26    14    15   ar
    27    15    17    1
    28    17    18   ar
    29    18    19   ar
    30    19    20   ar
    31    20    21   ar
    32    15    16   ar
    33    16    11   ar
    34     9     3    1
    35    28    23   ar
    36    21    17   ar
    37    33    29   ar
@<TRIPOS>MOLECULE
*****
 33 37 0 0 0
SMALL
GASTEIGER

@<TRIPOS>ATOM
      1 C          63.1300   87.1631   12.5908 C.2     1  UNL1        0.2506
      2 O          63.8059   87.5685   13.8670 O.2     1  UNL1       -0.2699
      3 N          62.4505   88.1957   11.7412 N.am    1  UNL1       -0.2724
      4 C          61.7746   87.7903   10.4649 C.3     1  UNL1        0.1231
      5 C          61.0951   88.8229    9.6153 C.3     1  UNL1        0.1351
      6 C          60.4192   88.4175    8.3390 C.3     1  UNL1        0.0339
      7 O          61.0915   90.2610   10.0418 O.3     1  UNL1       -0.3527
      8 C          61.7674   90.6664   11.3180 C.3     1  UNL1        0.1621
      9 C          62.4470   89.6338   12.1677 C.3     1  UNL1        0.1096
     10 C          63.1443   81.4108   10.8846 C.3     1  UNL1        0.0311
     11 C          63.1407   82.8489   11.3112 C.ar    1  UNL1       -0.0203
     12 C          63.1787   83.9372   10.2797 C.ar    1  UNL1       -0.0040
     13 C          63.1751   85.3753   10.7062 C.ar    1  UNL1        0.0058
     14 C          63.1336   85.7250   12.1643 C.ar    1  UNL1        0.0729
     15 C          63.0956   84.6367   13.1958 C.ar    1  UNL1        0.1069
     16 C          63.0992   83.1986   12.7692 C.ar    1  UNL1        0.0168
     17 N          63.0541   84.9864   14.6539 N.ar    1  UNL1       -0.1477
     18 N          64.2317   85.3587   15.5052 N.ar    1  UNL1       -0.1447
     19 C          63.7332   85.6276   16.8941 C.ar    1  UNL1        0.1446
     20 C          62.2474   85.4214   16.9012 C.ar    1  UNL1        0.1446
     21 N          61.8277   85.0251   15.5167 N.ar    1  UNL1       -0.1447
     22 C          63.1229   90.0392   13.4439 C.3     1  UNL1        0.0488
     23 C          64.4286   90.7761   13.3998 C.ar    1  UNL1       -0.0189
     24 C          65.4288   90.5966   14.5031 C.ar    1  UNL1       -0.0041
     25 C          66.7346   91.3335   14.4590 C.ar    1  UNL1        0.0013
     26 C          67.0401   92.2500   13.3115 C.ar    1  UNL1        0.0209
     27 C          66.0400   92.4295   12.2082 C.ar    1  UNL1        0.1026
     28 C          64.7342   91.6926   12.2523 C.ar    1  UNL1        0.0167
     29 N          66.3455   93.3459   11.0606 N.ar    1  UNL1       -0.1478
     30 N          67.4844   93.2007   10.0953 N.ar    1  UNL1       -0.1447
     31 C          67.4085   94.3335    9.1150 C.ar    1  UNL1        0.1446
     32 C          66.2227   95.1790    9.4745 C.ar    1  UNL1        0.1446
     33 N          65.5658   94.5686   10.6769 N.ar    1  UNL1       -0.1447
@<TRIPOS>BOND
     1    10    11    1
     2    11    12   ar
     3    12    13   ar
     4    13    14   ar
     5    14     1    1
     6     1     2    2
     7     1     3   am
     8     3     4    1
     9     4     5    1
    10     5     6    1
    11     5     7    1
    12     7     8    1
    13     8     9    1
    14     9    22    1
    15    22    23    1
    16    23    24   ar
    17    24    25   ar
    18    25    26   ar
    19    26    27   ar
    20    27    29    1
    21    29    30   ar
    22    30    31   ar
    23    31    32   ar
    24    32    33   ar
    25    27    28   ar
    26    14    15   ar
    27    15    17    1
    28    17    18   ar
    29    18    19   ar
    30    19    20   ar
    31    20    21   ar
    32    15    16   ar
    33    16    11   ar
    34     9     3    1
    35    28    23   ar
    36    21    17   ar
    37    33    29   ar
@<TRIPOS>MOLECULE
*****
 33 37 0 0 0
SMALL
GASTEIGER

@<TRIPOS>ATOM
      1 C          62.7282   88.5379   11.6004 C.2     1  UNL1        0.2506
      2 O          62.6958   90.0373   11.5766 O.2     1  UNL1       -0.2699
      3 N          63.3705   87.8198   12.7500 N.am    1  UNL1       -0.2724
      4 C          63.4030   86.3203   12.7739 C.3     1  UNL1        0.1231
      5 C          64.0453   85.6022   13.9235 C.3     1  UNL1        0.1351
      6 C          64.0777   84.1027   13.9473 C.3     1  UNL1        0.0339
      7 O          64.6551   86.3836   15.0494 O.3     1  UNL1       -0.3527
      8 C          64.6227   87.8830   15.0256 C.3     1  UNL1        0.1621
      9 C          63.9803   88.6012   13.8759 C.3     1  UNL1        0.1096
     10 C          60.2889   85.4125    7.0969 C.3     1  UNL1        0.0311
     11 C          60.8987   86.1939    8.2227 C.ar    1  UNL1       -0.0203
     12 C          62.3398   85.9879    8.5843 C.ar    1  UNL1       -0.0040
     13 C          62.9496   86.7692    9.7102 C.ar    1  UNL1        0.0058
     14 C          62.1184   87.7566   10.4745 C.ar    1  UNL1        0.0729
     15 C          60.6773   87.9625   10.1129 C.ar    1  UNL1        0.1069
     16 C          60.0675   87.1812    8.9870 C.ar    1  UNL1        0.0168
     17 N          59.8460   88.9499   10.8772 N.ar    1  UNL1       -0.1477
     18 N          59.0933   88.6742   12.1450 N.ar    1  UNL1       -0.1447
     19 C          58.4035   89.9402   12.5593 C.ar    1  UNL1        0.1446
     20 C          58.7299   90.9983   11.5473 C.ar    1  UNL1        0.1446
     21 N          59.6214   90.3863   10.5078 N.ar    1  UNL1       -0.1447
     22 C          63.9479   90.1006   13.8521 C.3     1  UNL1        0.0488
     23 C          65.2291   90.8775   13.7821 C.ar    1  UNL1       -0.0189
     24 C          66.1669   90.8846   14.9527 C.ar    1  UNL1       -0.0041
     25 C          67.4481   91.6615   14.8827 C.ar    1  UNL1        0.0013
     26 C          67.7915   92.4313   13.6420 C.ar    1  UNL1        0.0209
     27 C          66.8537   92.4243   12.4713 C.ar    1  UNL1        0.1026
     28 C          65.5725   91.6474   12.5414 C.ar    1  UNL1        0.0167
     29 N          67.1972   93.1941   11.2306 N.ar    1  UNL1       -0.1478
     30 N          66.8848   94.6387   10.9745 N.ar    1  UNL1       -0.1447
     31 C          67.4078   94.9919    9.6137 C.ar    1  UNL1        0.1446
     32 C          68.0435   93.7656    9.0288 C.ar    1  UNL1        0.1446
     33 N          67.9133   92.6545   10.0280 N.ar    1  UNL1       -0.1447
@<TRIPOS>BOND
     1    10    11    1
     2    11    12   ar
     3    12    13   ar
     4    13    14   ar
     5    14     1    1
     6     1     2    2
     7     1     3   am
     8     3     4    1
     9     4     5    1
    10     5     6    1
    11     5     7    1
    12     7     8    1
    13     8     9    1
    14     9    22    1
    15    22    23    1
    16    23    24   ar
    17    24    25   ar
    18    25    26   ar
    19    26    27   ar
    20    27    29    1
    21    29    30   ar
    22    30    31   ar
    23    31    32   ar
    24    32    33   ar
    25    27    28   ar
    26    14    15   ar
    27    15    17    1
    28    17    18   ar
    29    18    19   ar
    30    19    20   ar
    31    20    21   ar
    32    15    16   ar
    33    16    11   ar
    34     9     3    1
    35    28    23   ar
    36    21    17   ar
    37    33    29   ar
