@<TRIPOS>MOLECULE
*****
 25 27 0 0 0
SMALL
GASTEIGER

@<TRIPOS>ATOM
      1 N          61.4852   89.7894   12.6740 N.pl3   1  UNL1       -0.2150
      2 H          60.6720   90.0618   13.1576 H       1  UNL1        0.1737
      3 C          65.4971   91.3865   13.9403 C.ar    1  UNL1        0.0652
      4 C          64.7476   90.4457   14.8364 C.ar    1  UNL1        0.0189
      5 C          63.4103   89.9134   14.4143 C.ar    1  UNL1        0.0173
      6 C          62.8226   90.3218   13.0961 C.ar    1  UNL1        0.0649
      7 C          63.5721   91.2626   12.2000 C.ar    1  UNL1        0.0173
      8 C          64.9094   91.7949   12.6221 C.ar    1  UNL1        0.0189
      9 C          68.1520   91.6158   12.0564 C.3     1  UNL1        0.0722
     10 C          68.0548   92.0243   13.4965 C.ar    1  UNL1        0.1247
     11 N          69.1608   92.6099   14.3234 N.ar    1  UNL1       -0.2290
     12 C          68.6241   92.8664   15.7004 C.ar    1  UNL1        0.1192
     13 C          67.1864   92.4393   15.7245 C.ar    1  UNL1        0.1019
     14 N          66.8345   91.9189   14.3624 N.ar    1  UNL1       -0.2923
     15 S          61.3868   88.8420   11.5153 S.O2    1  UNL1        0.0736
     16 O          62.5192   88.0356   12.0786 O.2     1  UNL1       -0.1499
     17 O          60.2544   89.6484   10.9521 O.2     1  UNL1       -0.1499
     18 C          61.2884   87.8945   10.3565 C.ar    1  UNL1        0.1268
     19 C          62.3626   86.8724   10.1302 C.ar    1  UNL1        0.0316
     20 C          62.2643   85.9250    8.9715 C.ar    1  UNL1        0.0599
     21 CL         63.3385   84.9028    8.7451 Cl      1  UNL1       -0.0822
     22 C          61.0917   85.9997    8.0391 C.ar    1  UNL1        0.0229
     23 C          60.0174   87.0219    8.2654 C.ar    1  UNL1        0.0599
     24 CL         58.8448   87.0966    7.3330 Cl      1  UNL1       -0.0822
     25 C          60.1158   87.9693    9.4242 C.ar    1  UNL1        0.0316
@<TRIPOS>BOND
     1     9    10    1
     2    10    11   ar
     3    11    12   ar
     4    12    13   ar
     5    13    14   ar
     6    14     3    1
     7     3     4   ar
     8     4     5   ar
     9     5     6   ar
    10     6     1    1
    11     1    15    1
    12    15    16    2
    13    15    17    2
    14    15    18    1
    15    18    19   ar
    16    19    20   ar
    17    20    21    1
    18    20    22   ar
    19    22    23   ar
    20    23    24    1
    21    23    25   ar
    22     6     7   ar
    23     7     8   ar
    24    14    10   ar
    25     8     3   ar
    26    25    18   ar
    27     1     2    1
@<TRIPOS>MOLECULE
*****
 25 27 0 0 0
SMALL
GASTEIGER

@<TRIPOS>ATOM
      1 N          61.4625   89.7532   12.6729 N.pl3   1  UNL1       -0.2150
      2 H          60.6459   90.0297   13.1482 H       1  UNL1        0.1737
      3 C          65.4633   91.3760   13.9420 C.ar    1  UNL1        0.0652
      4 C          64.7122   90.4424   14.8443 C.ar    1  UNL1        0.0189
      5 C          63.3787   89.9014   14.4212 C.ar    1  UNL1        0.0173
      6 C          62.7962   90.2942   13.0959 C.ar    1  UNL1        0.0649
      7 C          63.5472   91.2278   12.1937 C.ar    1  UNL1        0.0173
      8 C          64.8807   91.7688   12.6167 C.ar    1  UNL1        0.0189
      9 C          68.1272   91.5920   12.0694 C.3     1  UNL1        0.0722
     10 C          68.0213   92.0163   13.5043 C.ar    1  UNL1        0.1247
     11 N          69.1213   92.6143   14.3303 N.ar    1  UNL1       -0.2290
     12 C          68.5767   92.8847   15.7016 C.ar    1  UNL1        0.1192
     13 C          67.1401   92.4537   15.7230 C.ar    1  UNL1        0.1019
     14 N          66.7969   91.9170   14.3650 N.ar    1  UNL1       -0.2923
     15 S          61.3732   88.7908   11.5259 S.O2    1  UNL1        0.0736
     16 O          60.2009   89.5506   10.9797 O.2     1  UNL1       -0.1499
     17 O          62.5455   88.0310   12.0720 O.2     1  UNL1       -0.1499
     18 C          61.2838   87.8284   10.3787 C.ar    1  UNL1        0.1268
     19 C          60.0912   87.8541    9.4694 C.ar    1  UNL1        0.0316
     20 C          60.0018   86.8917    8.3223 C.ar    1  UNL1        0.0599
     21 CL         58.8092   86.9174    7.4129 Cl      1  UNL1       -0.0822
     22 C          61.1051   85.9037    8.0846 C.ar    1  UNL1        0.0229
     23 C          62.2977   85.8780    8.9940 C.ar    1  UNL1        0.0599
     24 CL         63.4010   84.8898    8.7562 Cl      1  UNL1       -0.0822
     25 C          62.3871   86.8403   10.1410 C.ar    1  UNL1        0.0316
@<TRIPOS>BOND
     1     9    10    1
     2    10    11   ar
     3    11    12   ar
     4    12    13   ar
     5    13    14   ar
     6    14     3    1
     7     3     4   ar
     8     4     5   ar
     9     5     6   ar
    10     6     1    1
    11     1    15    1
    12    15    16    2
    13    15    17    2
    14    15    18    1
    15    18    19   ar
    16    19    20   ar
    17    20    21    1
    18    20    22   ar
    19    22    23   ar
    20    23    24    1
    21    23    25   ar
    22     6     7   ar
    23     7     8   ar
    24    14    10   ar
    25     8     3   ar
    26    25    18   ar
    27     1     2    1
@<TRIPOS>MOLECULE
*****
 25 27 0 0 0
SMALL
GASTEIGER

@<TRIPOS>ATOM
      1 N          62.2763   89.4171   12.3525 N.pl3   1  UNL1       -0.2150
      2 H          61.5746   89.6069   13.0164 H       1  UNL1        0.1737
      3 C          65.0984   92.6777   11.0664 C.ar    1  UNL1        0.0652
      4 C          65.1227   92.1797   12.4810 C.ar    1  UNL1        0.0189
      5 C          64.1820   91.0928   12.9097 C.ar    1  UNL1        0.0173
      6 C          63.2170   90.5040   11.9237 C.ar    1  UNL1        0.0649
      7 C          63.1928   91.0020   10.5091 C.ar    1  UNL1        0.0173
      8 C          64.1335   92.0889   10.0804 C.ar    1  UNL1        0.0189
      9 C          68.0294   92.2483    9.6972 C.3     1  UNL1        0.0722
     10 C          67.3863   93.5672   10.0083 C.ar    1  UNL1        0.1247
     11 N          67.9776   94.9203    9.7447 N.ar    1  UNL1       -0.2290
     12 C          66.9957   95.9541   10.2111 C.ar    1  UNL1        0.1192
     13 C          65.7977   95.2398   10.7629 C.ar    1  UNL1        0.1019
     14 N          66.0391   93.7646   10.6376 N.ar    1  UNL1       -0.2923
     15 S          62.4048   88.0409   11.7697 S.O2    1  UNL1        0.0736
     16 O          63.4950   87.7271   12.7510 O.2     1  UNL1       -0.1499
     17 O          61.3146   88.3547   10.7884 O.2     1  UNL1       -0.1499
     18 C          62.5332   86.6647   11.1869 C.ar    1  UNL1        0.1268
     19 C          62.5927   86.4829    9.6991 C.ar    1  UNL1        0.0316
     20 C          62.7212   85.1068    9.1162 C.ar    1  UNL1        0.0599
     21 CL         62.7807   84.9250    7.6285 Cl      1  UNL1       -0.0822
     22 C          62.7901   83.9125   10.0211 C.ar    1  UNL1        0.0229
     23 C          62.7305   84.0943   11.5089 C.ar    1  UNL1        0.0599
     24 CL         62.7994   82.8999   12.4138 Cl      1  UNL1       -0.0822
     25 C          62.6021   85.4704   12.0917 C.ar    1  UNL1        0.0316
@<TRIPOS>BOND
     1     9    10    1
     2    10    11   ar
     3    11    12   ar
     4    12    13   ar
     5    13    14   ar
     6    14     3    1
     7     3     4   ar
     8     4     5   ar
     9     5     6   ar
    10     6     1    1
    11     1    15    1
    12    15    16    2
    13    15    17    2
    14    15    18    1
    15    18    19   ar
    16    19    20   ar
    17    20    21    1
    18    20    22   ar
    19    22    23   ar
    20    23    24    1
    21    23    25   ar
    22     6     7   ar
    23     7     8   ar
    24    14    10   ar
    25     8     3   ar
    26    25    18   ar
    27     1     2    1
@<TRIPOS>MOLECULE
*****
 25 27 0 0 0
SMALL
GASTEIGER

@<TRIPOS>ATOM
      1 N          63.8287   91.7474   13.0265 N.pl3   1  UNL1       -0.2150
      2 H          63.1661   92.2960   13.5053 H       1  UNL1        0.1737
      3 C          63.8242   87.2744   13.5191 C.ar    1  UNL1        0.0652
      4 C          63.1790   87.8972   12.3166 C.ar    1  UNL1        0.0189
      5 C          63.1805   89.3881   12.1525 C.ar    1  UNL1        0.0173
      6 C          63.8272   90.2563   13.1908 C.ar    1  UNL1        0.0649
      7 C          64.4724   89.6336   14.3932 C.ar    1  UNL1        0.0173
      8 C          64.4708   88.1426   14.5574 C.ar    1  UNL1        0.0189
      9 C          62.3487   85.1293   11.5515 C.3     1  UNL1        0.0722
     10 C          63.1445   84.7974   12.7789 C.ar    1  UNL1        0.1247
     11 N          63.4018   83.4213   13.3174 N.ar    1  UNL1       -0.2290
     12 C          64.2391   83.5567   14.5547 C.ar    1  UNL1        0.1192
     13 C          64.4992   85.0166   14.7808 C.ar    1  UNL1        0.1019
     14 N          63.8227   85.7834   13.6833 N.ar    1  UNL1       -0.2923
     15 S          64.8397   92.4025   12.1329 S.O2    1  UNL1        0.0736
     16 O          65.5936   92.8823   13.3376 O.2     1  UNL1       -0.1499
     17 O          64.0857   91.9227   10.9282 O.2     1  UNL1       -0.1499
     18 C          65.8507   93.0576   11.2391 C.ar    1  UNL1        0.1268
     19 C          66.8217   92.2178   10.4632 C.ar    1  UNL1        0.0316
     20 C          67.8326   92.8729    9.5695 C.ar    1  UNL1        0.0599
     21 CL         68.8036   92.0331    8.7935 Cl      1  UNL1       -0.0822
     22 C          67.8727   94.3677    9.4517 C.ar    1  UNL1        0.0229
     23 C          66.9018   95.2074   10.2277 C.ar    1  UNL1        0.0599
     24 CL         66.9419   96.7023   10.1099 Cl      1  UNL1       -0.0822
     25 C          65.8908   94.5524   11.1214 C.ar    1  UNL1        0.0316
@<TRIPOS>BOND
     1     9    10    1
     2    10    11   ar
     3    11    12   ar
     4    12    13   ar
     5    13    14   ar
     6    14     3    1
     7     3     4   ar
     8     4     5   ar
     9     5     6   ar
    10     6     1    1
    11     1    15    1
    12    15    16    2
    13    15    17    2
    14    15    18    1
    15    18    19   ar
    16    19    20   ar
    17    20    21    1
    18    20    22   ar
    19    22    23   ar
    20    23    24    1
    21    23    25   ar
    22     6     7   ar
    23     7     8   ar
    24    14    10   ar
    25     8     3   ar
    26    25    18   ar
    27     1     2    1
@<TRIPOS>MOLECULE
*****
 25 27 0 0 0
SMALL
GASTEIGER

@<TRIPOS>ATOM
      1 N          63.6446   91.7672   12.6765 N.pl3   1  UNL1       -0.2150
      2 H          62.9038   92.3075   13.0351 H       1  UNL1        0.1737
      3 C          63.8005   87.3434   13.4864 C.ar    1  UNL1        0.0652
      4 C          64.4377   88.3044   14.4457 C.ar    1  UNL1        0.0189
      5 C          64.3858   89.7790   14.1757 C.ar    1  UNL1        0.0173
      6 C          63.6965   90.2926   12.9464 C.ar    1  UNL1        0.0649
      7 C          63.0593   89.3316   11.9871 C.ar    1  UNL1        0.0173
      8 C          63.1112   87.8570   12.2571 C.ar    1  UNL1        0.0189
      9 C          62.5012   85.0043   11.6181 C.3     1  UNL1        0.0722
     10 C          63.2552   84.7937   12.8976 C.ar    1  UNL1        0.1247
     11 N          63.5444   83.4709   13.5430 N.ar    1  UNL1       -0.2290
     12 C          64.3204   83.7284   14.8006 C.ar    1  UNL1        0.1192
     13 C          64.5107   85.2104   14.9324 C.ar    1  UNL1        0.1019
     14 N          63.8524   85.8688   13.7563 N.ar    1  UNL1       -0.2923
     15 S          64.7213   92.4186   11.8602 S.O2    1  UNL1        0.0736
     16 O          64.0342   91.9776   10.6019 O.2     1  UNL1       -0.1499
     17 O          65.4084   92.8596   13.1185 O.2     1  UNL1       -0.1499
     18 C          65.7981   93.0701   11.0440 C.ar    1  UNL1        0.1268
     19 C          65.8658   94.5655   10.9486 C.ar    1  UNL1        0.0316
     20 C          66.9425   95.2170   10.1325 C.ar    1  UNL1        0.0599
     21 CL         67.0103   96.7124   10.0371 Cl      1  UNL1       -0.0822
     22 C          67.9515   94.3730    9.4116 C.ar    1  UNL1        0.0229
     23 C          67.8838   92.8776    9.5070 C.ar    1  UNL1        0.0599
     24 CL         68.8928   92.0337    8.7861 Cl      1  UNL1       -0.0822
     25 C          66.8071   92.2261   10.3232 C.ar    1  UNL1        0.0316
@<TRIPOS>BOND
     1     9    10    1
     2    10    11   ar
     3    11    12   ar
     4    12    13   ar
     5    13    14   ar
     6    14     3    1
     7     3     4   ar
     8     4     5   ar
     9     5     6   ar
    10     6     1    1
    11     1    15    1
    12    15    16    2
    13    15    17    2
    14    15    18    1
    15    18    19   ar
    16    19    20   ar
    17    20    21    1
    18    20    22   ar
    19    22    23   ar
    20    23    24    1
    21    23    25   ar
    22     6     7   ar
    23     7     8   ar
    24    14    10   ar
    25     8     3   ar
    26    25    18   ar
    27     1     2    1
@<TRIPOS>MOLECULE
*****
 25 27 0 0 0
SMALL
GASTEIGER

@<TRIPOS>ATOM
      1 N          63.8483   90.4032   14.0655 N.pl3   1  UNL1       -0.2150
      2 H          63.4952   90.7350   14.9225 H       1  UNL1        0.1737
      3 C          65.9121   93.2299   11.2370 C.ar    1  UNL1        0.0652
      4 C          66.3846   93.1105   12.6556 C.ar    1  UNL1        0.0189
      5 C          65.6967   92.1683   13.5984 C.ar    1  UNL1        0.0173
      6 C          64.5363   91.3455   13.1226 C.ar    1  UNL1        0.0649
      7 C          64.0638   91.4648   11.7040 C.ar    1  UNL1        0.0173
      8 C          64.7517   92.4070   10.7612 C.ar    1  UNL1        0.0189
      9 C          68.3404   92.4671    9.1945 C.3     1  UNL1        0.0722
     10 C          67.7162   93.8215    9.3553 C.ar    1  UNL1        0.1247
     11 N          68.0985   95.0631    8.6055 N.ar    1  UNL1       -0.2290
     12 C          67.2187   96.1811    9.0809 C.ar    1  UNL1        0.1192
     13 C          66.2926   95.6305   10.1244 C.ar    1  UNL1        0.1019
     14 N          66.6001   94.1721   10.2941 N.ar    1  UNL1       -0.2923
     15 S          63.6985   88.9555   13.7027 S.O2    1  UNL1        0.0736
     16 O          62.5512   89.3005   12.8001 O.2     1  UNL1       -0.1499
     17 O          64.8457   88.6106   14.6052 O.2     1  UNL1       -0.1499
     18 C          63.5486   87.5078   13.3398 C.ar    1  UNL1        0.1268
     19 C          62.7934   87.1187   12.1036 C.ar    1  UNL1        0.0316
     20 C          62.6435   85.6710   11.7407 C.ar    1  UNL1        0.0599
     21 CL         61.8883   85.2819   10.5045 Cl      1  UNL1       -0.0822
     22 C          63.2490   84.6124   12.6141 C.ar    1  UNL1        0.0229
     23 C          64.0042   85.0015   13.8503 C.ar    1  UNL1        0.0599
     24 CL         64.6097   83.9428   14.7236 Cl      1  UNL1       -0.0822
     25 C          64.1541   86.4492   14.2131 C.ar    1  UNL1        0.0316
@<TRIPOS>BOND
     1     9    10    1
     2    10    11   ar
     3    11    12   ar
     4    12    13   ar
     5    13    14   ar
     6    14     3    1
     7     3     4   ar
     8     4     5   ar
     9     5     6   ar
    10     6     1    1
    11     1    15    1
    12    15    16    2
    13    15    17    2
    14    15    18    1
    15    18    19   ar
    16    19    20   ar
    17    20    21    1
    18    20    22   ar
    19    22    23   ar
    20    23    24    1
    21    23    25   ar
    22     6     7   ar
    23     7     8   ar
    24    14    10   ar
    25     8     3   ar
    26    25    18   ar
    27     1     2    1
@<TRIPOS>MOLECULE
*****
 25 27 0 0 0
SMALL
GASTEIGER

@<TRIPOS>ATOM
      1 N          63.9724   90.6024   14.1651 N.pl3   1  UNL1       -0.2150
      2 H          63.6600   90.9246   15.0414 H       1  UNL1        0.1737
      3 C          65.9570   93.4476   11.2987 C.ar    1  UNL1        0.0652
      4 C          66.3905   93.4051   12.7341 C.ar    1  UNL1        0.0189
      5 C          65.7290   92.4567   13.6895 C.ar    1  UNL1        0.0173
      6 C          64.6339   91.5508   13.2096 C.ar    1  UNL1        0.0649
      7 C          64.2005   91.5933   11.7743 C.ar    1  UNL1        0.0173
      8 C          64.8620   92.5417   10.8188 C.ar    1  UNL1        0.0189
      9 C          65.9284   96.7046   11.5002 C.3     1  UNL1        0.0722
     10 C          66.6054   95.8930   10.4359 C.ar    1  UNL1        0.1247
     11 N          67.3881   96.4361    9.2772 N.ar    1  UNL1       -0.2290
     12 C          67.8851   95.2746    8.4685 C.ar    1  UNL1        0.1192
     13 C          67.4095   94.0138    9.1273 C.ar    1  UNL1        0.1019
     14 N          66.6186   94.3960   10.3432 N.ar    1  UNL1       -0.2923
     15 S          63.7869   89.1632   13.7855 S.O2    1  UNL1        0.0736
     16 O          62.5580   89.5271   13.0061 O.2     1  UNL1       -0.1499
     17 O          65.0157   88.7992   14.5649 O.2     1  UNL1       -0.1499
     18 C          63.6014   87.7238   13.4060 C.ar    1  UNL1        0.1268
     19 C          64.1826   86.6406   14.2655 C.ar    1  UNL1        0.0316
     20 C          63.9971   85.2014   13.8860 C.ar    1  UNL1        0.0599
     21 CL         64.5784   84.1182   14.7456 Cl      1  UNL1       -0.0822
     22 C          63.2304   84.8453   12.6469 C.ar    1  UNL1        0.0229
     23 C          62.6492   85.9285   11.7874 C.ar    1  UNL1        0.0599
     24 CL         61.8825   85.5724   10.5482 Cl      1  UNL1       -0.0822
     25 C          62.8347   87.3678   12.1669 C.ar    1  UNL1        0.0316
@<TRIPOS>BOND
     1     9    10    1
     2    10    11   ar
     3    11    12   ar
     4    12    13   ar
     5    13    14   ar
     6    14     3    1
     7     3     4   ar
     8     4     5   ar
     9     5     6   ar
    10     6     1    1
    11     1    15    1
    12    15    16    2
    13    15    17    2
    14    15    18    1
    15    18    19   ar
    16    19    20   ar
    17    20    21    1
    18    20    22   ar
    19    22    23   ar
    20    23    24    1
    21    23    25   ar
    22     6     7   ar
    23     7     8   ar
    24    14    10   ar
    25     8     3   ar
    26    25    18   ar
    27     1     2    1
@<TRIPOS>MOLECULE
*****
 25 27 0 0 0
SMALL
GASTEIGER

@<TRIPOS>ATOM
      1 N          62.6826   86.4885   12.6271 N.pl3   1  UNL1       -0.2150
      2 H          62.5729   85.7782   13.2999 H       1  UNL1        0.1737
      3 C          64.6927   90.3561   13.7454 C.ar    1  UNL1        0.0652
      4 C          63.8272   90.2871   12.5223 C.ar    1  UNL1        0.0189
      5 C          63.1571   88.9979   12.1496 C.ar    1  UNL1        0.0173
      6 C          63.3526   87.7778   12.9999 C.ar    1  UNL1        0.0649
      7 C          64.2182   87.8468   14.2230 C.ar    1  UNL1        0.0173
      8 C          64.8882   89.1360   14.5957 C.ar    1  UNL1        0.0189
      9 C          65.5225   92.7512   11.6899 C.3     1  UNL1        0.0722
     10 C          65.7442   92.7462   13.1734 C.ar    1  UNL1        0.1247
     11 N          66.3862   93.8413   13.9726 N.ar    1  UNL1       -0.2290
     12 C          66.4016   93.4172   15.4114 C.ar    1  UNL1        0.1192
     13 C          65.7691   92.0601   15.5013 C.ar    1  UNL1        0.1019
     14 N          65.3628   91.6454   14.1182 N.ar    1  UNL1       -0.2923
     15 S          62.1796   86.2816   11.2292 S.O2    1  UNL1        0.0736
     16 O          63.2871   85.3023   10.9757 O.2     1  UNL1       -0.1499
     17 O          61.0720   87.2608   11.4827 O.2     1  UNL1       -0.1499
     18 C          61.6765   86.0746    9.8312 C.ar    1  UNL1        0.1268
     19 C          60.3297   86.6016    9.4331 C.ar    1  UNL1        0.0316
     20 C          59.8266   86.3947    8.0353 C.ar    1  UNL1        0.0599
     21 CL         58.4799   86.9217    7.6372 Cl      1  UNL1       -0.0822
     22 C          60.6704   85.6608    7.0355 C.ar    1  UNL1        0.0229
     23 C          62.0171   85.1339    7.4336 C.ar    1  UNL1        0.0599
     24 CL         62.8609   84.4000    6.4338 Cl      1  UNL1       -0.0822
     25 C          62.5202   85.3408    8.8315 C.ar    1  UNL1        0.0316
@<TRIPOS>BOND
     1     9    10    1
     2    10    11   ar
     3    11    12   ar
     4    12    13   ar
     5    13    14   ar
     6    14     3    1
     7     3     4   ar
     8     4     5   ar
     9     5     6   ar
    10     6     1    1
    11     1    15    1
    12    15    16    2
    13    15    17    2
    14    15    18    1
    15    18    19   ar
    16    19    20   ar
    17    20    21    1
    18    20    22   ar
    19    22    23   ar
    20    23    24    1
    21    23    25   ar
    22     6     7   ar
    23     7     8   ar
    24    14    10   ar
    25     8     3   ar
    26    25    18   ar
    27     1     2    1
@<TRIPOS>MOLECULE
*****
 25 27 0 0 0
SMALL
GASTEIGER

@<TRIPOS>ATOM
      1 N          63.7138   87.7069   15.1735 N.pl3   1  UNL1       -0.2150
      2 H          63.5785   87.7415   16.1480 H       1  UNL1        0.1737
      3 C          65.0204   91.3949   12.9506 C.ar    1  UNL1        0.0652
      4 C          63.8274   90.6179   12.4785 C.ar    1  UNL1        0.0189
      5 C          63.3919   89.3886   13.2194 C.ar    1  UNL1        0.0173
      6 C          64.1494   88.9363   14.4325 C.ar    1  UNL1        0.0649
      7 C          65.3423   89.7133   14.9047 C.ar    1  UNL1        0.0173
      8 C          65.7779   90.9426   14.1637 C.ar    1  UNL1        0.0189
      9 C          66.6991   93.8967   14.2049 C.3     1  UNL1        0.0722
     10 C          66.2275   93.7742   12.7862 C.ar    1  UNL1        0.1247
     11 N          66.4448   94.7802   11.6950 N.ar    1  UNL1       -0.2290
     12 C          65.8075   94.2520   10.4440 C.ar    1  UNL1        0.1192
     13 C          65.1964   92.9196   10.7621 C.ar    1  UNL1        0.1019
     14 N          65.4560   92.6243   12.2097 N.ar    1  UNL1       -0.2923
     15 S          63.4843   86.4247   14.4296 S.O2    1  UNL1        0.0736
     16 O          63.6255   87.1552   13.1271 O.2     1  UNL1       -0.1499
     17 O          63.3432   85.6943   15.7321 O.2     1  UNL1       -0.1499
     18 C          63.2549   85.1425   13.6857 C.ar    1  UNL1        0.1268
     19 C          62.6653   83.9594   14.3946 C.ar    1  UNL1        0.0316
     20 C          62.4358   82.6772   13.6508 C.ar    1  UNL1        0.0599
     21 CL         61.8463   81.4940   14.3598 Cl      1  UNL1       -0.0822
     22 C          62.7959   82.5781   12.1981 C.ar    1  UNL1        0.0229
     23 C          63.3855   83.7613   11.4892 C.ar    1  UNL1        0.0599
     24 CL         63.7456   83.6622   10.0364 Cl      1  UNL1       -0.0822
     25 C          63.6150   85.0435   12.2330 C.ar    1  UNL1        0.0316
@<TRIPOS>BOND
     1     9    10    1
     2    10    11   ar
     3    11    12   ar
     4    12    13   ar
     5    13    14   ar
     6    14     3    1
     7     3     4   ar
     8     4     5   ar
     9     5     6   ar
    10     6     1    1
    11     1    15    1
    12    15    16    2
    13    15    17    2
    14    15    18    1
    15    18    19   ar
    16    19    20   ar
    17    20    21    1
    18    20    22   ar
    19    22    23   ar
    20    23    24    1
    21    23    25   ar
    22     6     7   ar
    23     7     8   ar
    24    14    10   ar
    25     8     3   ar
    26    25    18   ar
    27     1     2    1
