@<TRIPOS>MOLECULE
*****
 24 27 0 0 0
SMALL
GASTEIGER

@<TRIPOS>ATOM
      1 O          61.5635   85.1002   10.5232 O.2     1  UNL1       -0.2520
      2 C          61.6961   86.5935   10.5739 C.2     1  UNL1        0.3109
      3 N          61.0296   87.4414    9.5315 N.am    1  UNL1       -0.2638
      4 C          60.2305   86.7961    8.4383 C.3     1  UNL1        0.0953
      5 C          59.5639   87.6441    7.3958 C.3     1  UNL1        0.0275
      6 C          59.6966   89.1373    7.4465 C.3     1  UNL1        0.0431
      7 C          60.4957   89.7827    8.5397 C.3     1  UNL1        0.0275
      8 C          61.1622   88.9347    9.5821 C.3     1  UNL1        0.0953
      9 N          62.4953   87.2388   11.6670 N.am    1  UNL1       -0.2434
     10 C          62.6279   88.7320   11.7177 C.3     1  UNL1        0.1001
     11 C          63.4270   89.3774   12.8109 C.3     1  UNL1        0.0267
     12 C          64.0936   88.5294   13.8533 C.3     1  UNL1        0.0294
     13 C          63.9610   87.0361   13.8026 C.ar    1  UNL1       -0.0084
     14 C          64.6275   86.1882   14.8451 C.ar    1  UNL1       -0.0030
     15 C          64.4949   84.6950   14.7944 C.ar    1  UNL1       -0.0002
     16 C          63.6957   84.0496   13.7013 C.ar    1  UNL1        0.0013
     17 C          63.0292   84.8976   12.6588 C.ar    1  UNL1        0.0146
     18 C          63.1618   86.3908   12.7095 C.ar    1  UNL1        0.0513
     19 C          59.0300   89.9853    6.4041 C.ar    1  UNL1        0.0539
     20 C          59.7254   90.8204    5.3702 C.ar    1  UNL1        0.1131
     21 N          58.6763   91.4982    4.5396 N.ar    1  UNL1       -0.2229
     22 C          57.3324   91.0820    5.0602 C.ar    1  UNL1        0.1748
     23 N          57.5511   90.1469    6.2125 N.ar    1  UNL1       -0.3382
     24 H          56.8475   89.7151    6.7489 H       1  UNL1        0.1672
@<TRIPOS>BOND
     1     1     2    2
     2     2     3   am
     3     3     4    1
     4     4     5    1
     5     5     6    1
     6     6    19    1
     7    19    20   ar
     8    20    21   ar
     9    21    22   ar
    10    22    23   ar
    11     6     7    1
    12     7     8    1
    13     2     9   am
    14     9    10    1
    15    10    11    1
    16    11    12    1
    17    12    13    1
    18    13    14   ar
    19    14    15   ar
    20    15    16   ar
    21    16    17   ar
    22    17    18   ar
    23     8     3    1
    24    18     9    1
    25    23    19   ar
    26    18    13   ar
    27    23    24    1
@<TRIPOS>MOLECULE
*****
 24 27 0 0 0
SMALL
GASTEIGER

@<TRIPOS>ATOM
      1 O          64.5538   89.5346   14.3439 O.2     1  UNL1       -0.2520
      2 C          64.2996   90.1858   13.0167 C.2     1  UNL1        0.3109
      3 N          63.4124   89.5154   12.0100 N.am    1  UNL1       -0.2638
      4 C          62.7793   88.1939   12.3305 C.3     1  UNL1        0.0953
      5 C          61.8921   87.5235   11.3237 C.3     1  UNL1        0.0275
      6 C          61.6380   88.1747    9.9966 C.3     1  UNL1        0.0431
      7 C          62.2711   89.4963    9.6761 C.3     1  UNL1        0.0275
      8 C          63.1583   90.1666   10.6828 C.3     1  UNL1        0.0953
      9 N          64.9327   91.5074   12.6962 N.am    1  UNL1       -0.2434
     10 C          64.6786   92.1585   11.3691 C.3     1  UNL1        0.1001
     11 C          65.3117   93.4801   11.0486 C.3     1  UNL1        0.0267
     12 C          66.1989   94.1505   12.0553 C.3     1  UNL1        0.0294
     13 C          66.4531   93.4993   13.3825 C.ar    1  UNL1       -0.0084
     14 C          67.3403   94.1696   14.3892 C.ar    1  UNL1       -0.0030
     15 C          67.5943   93.5184   15.7164 C.ar    1  UNL1       -0.0002
     16 C          66.9613   92.1969   16.0368 C.ar    1  UNL1        0.0013
     17 C          66.0741   91.5265   15.0301 C.ar    1  UNL1        0.0146
     18 C          65.8200   92.1777   13.7030 C.ar    1  UNL1        0.0513
     19 C          60.7508   87.5044    8.9899 C.ar    1  UNL1        0.0539
     20 C          60.9500   86.1341    8.4131 C.ar    1  UNL1        0.1131
     21 N          59.8310   85.8694    7.4500 N.ar    1  UNL1       -0.2229
     22 C          58.9401   87.0761    7.4315 C.ar    1  UNL1        0.1748
     23 N          59.5086   88.0865    8.3832 N.ar    1  UNL1       -0.3382
     24 H          59.1325   88.9757    8.5758 H       1  UNL1        0.1672
@<TRIPOS>BOND
     1     1     2    2
     2     2     3   am
     3     3     4    1
     4     4     5    1
     5     5     6    1
     6     6    19    1
     7    19    20   ar
     8    20    21   ar
     9    21    22   ar
    10    22    23   ar
    11     6     7    1
    12     7     8    1
    13     2     9   am
    14     9    10    1
    15    10    11    1
    16    11    12    1
    17    12    13    1
    18    13    14   ar
    19    14    15   ar
    20    15    16   ar
    21    16    17   ar
    22    17    18   ar
    23     8     3    1
    24    18     9    1
    25    23    19   ar
    26    18    13   ar
    27    23    24    1
@<TRIPOS>MOLECULE
*****
 24 27 0 0 0
SMALL
GASTEIGER

@<TRIPOS>ATOM
      1 O          62.0096   91.0140    9.6426 O.2     1  UNL1       -0.2520
      2 C          62.5255   90.0393   10.6595 C.2     1  UNL1        0.3109
      3 N          63.4918   90.4950   11.7123 N.am    1  UNL1       -0.2638
      4 C          63.9423   91.9252   11.7483 C.3     1  UNL1        0.0953
      5 C          64.9087   92.3809   12.8013 C.3     1  UNL1        0.0275
      6 C          65.4245   91.4062   13.8181 C.3     1  UNL1        0.0431
      7 C          64.9740   89.9759   13.7820 C.3     1  UNL1        0.0275
      8 C          64.0077   89.5203   12.7292 C.3     1  UNL1        0.0953
      9 N          62.0749   88.6090   10.6234 N.am    1  UNL1       -0.2434
     10 C          62.5907   87.6344   11.6402 C.3     1  UNL1        0.1001
     11 C          62.1402   86.2041   11.6042 C.3     1  UNL1        0.0267
     12 C          61.1739   85.7485   10.5513 C.3     1  UNL1        0.0294
     13 C          60.6580   86.7231    9.5344 C.ar    1  UNL1       -0.0084
     14 C          59.6917   86.2675    8.4816 C.ar    1  UNL1       -0.0030
     15 C          59.1759   87.2422    7.4648 C.ar    1  UNL1       -0.0002
     16 C          59.6264   88.6724    7.5008 C.ar    1  UNL1        0.0013
     17 C          60.5927   89.1281    8.5537 C.ar    1  UNL1        0.0146
     18 C          61.1085   88.1534    9.5705 C.ar    1  UNL1        0.0513
     19 C          66.3909   91.8618   14.8709 C.ar    1  UNL1        0.0539
     20 C          66.0745   92.7635   16.0271 C.ar    1  UNL1        0.1131
     21 N          67.3314   92.9547   16.8232 N.ar    1  UNL1       -0.2229
     22 C          68.4246   92.1712   16.1590 C.ar    1  UNL1        0.1748
     23 N          67.8433   91.4958   14.9524 N.ar    1  UNL1       -0.3382
     24 H          68.3296   90.9143   14.3243 H       1  UNL1        0.1672
@<TRIPOS>BOND
     1     1     2    2
     2     2     3   am
     3     3     4    1
     4     4     5    1
     5     5     6    1
     6     6    19    1
     7    19    20   ar
     8    20    21   ar
     9    21    22   ar
    10    22    23   ar
    11     6     7    1
    12     7     8    1
    13     2     9   am
    14     9    10    1
    15    10    11    1
    16    11    12    1
    17    12    13    1
    18    13    14   ar
    19    14    15   ar
    20    15    16   ar
    21    16    17   ar
    22    17    18   ar
    23     8     3    1
    24    18     9    1
    25    23    19   ar
    26    18    13   ar
    27    23    24    1
@<TRIPOS>MOLECULE
*****
 24 27 0 0 0
SMALL
GASTEIGER

@<TRIPOS>ATOM
      1 O          62.6979   83.2367   15.6209 O.2     1  UNL1       -0.2520
      2 C          63.1089   84.1399   14.4959 C.2     1  UNL1        0.3109
      3 N          63.3787   85.5916   14.7599 N.am    1  UNL1       -0.2638
      4 C          63.2377   86.1402   16.1488 C.3     1  UNL1        0.0953
      5 C          63.5076   87.5920   16.4127 C.3     1  UNL1        0.0275
      6 C          63.9185   88.4950   15.2878 C.3     1  UNL1        0.0431
      7 C          64.0595   87.9464   13.8988 C.3     1  UNL1        0.0275
      8 C          63.7896   86.4947   13.6349 C.3     1  UNL1        0.0953
      9 N          63.2499   83.5912   13.1070 N.am    1  UNL1       -0.2434
     10 C          63.6607   84.4943   11.9820 C.3     1  UNL1        0.1001
     11 C          63.8017   83.9457   10.5931 C.3     1  UNL1        0.0267
     12 C          63.5319   82.4940   10.3291 C.3     1  UNL1        0.0294
     13 C          63.1210   81.5908   11.4541 C.ar    1  UNL1       -0.0084
     14 C          62.8511   80.1391   11.1902 C.ar    1  UNL1       -0.0030
     15 C          62.4402   79.2361   12.3151 C.ar    1  UNL1       -0.0002
     16 C          62.2992   79.7847   13.7041 C.ar    1  UNL1        0.0013
     17 C          62.5691   81.2364   13.9680 C.ar    1  UNL1        0.0146
     18 C          62.9800   82.1395   12.8431 C.ar    1  UNL1        0.0513
     19 C          64.1884   89.9467   15.5517 C.ar    1  UNL1        0.0539
     20 C          63.4829   90.8057   16.5589 C.ar    1  UNL1        0.1131
     21 N          64.0696   92.1842   16.4845 N.ar    1  UNL1       -0.2229
     22 C          65.1377   92.1772   15.4313 C.ar    1  UNL1        0.1748
     23 N          65.2111   90.7943   14.8549 N.ar    1  UNL1       -0.3382
     24 H          65.8230   90.4955   14.1439 H       1  UNL1        0.1672
@<TRIPOS>BOND
     1     1     2    2
     2     2     3   am
     3     3     4    1
     4     4     5    1
     5     5     6    1
     6     6    19    1
     7    19    20   ar
     8    20    21   ar
     9    21    22   ar
    10    22    23   ar
    11     6     7    1
    12     7     8    1
    13     2     9   am
    14     9    10    1
    15    10    11    1
    16    11    12    1
    17    12    13    1
    18    13    14   ar
    19    14    15   ar
    20    15    16   ar
    21    16    17   ar
    22    17    18   ar
    23     8     3    1
    24    18     9    1
    25    23    19   ar
    26    18    13   ar
    27    23    24    1
@<TRIPOS>MOLECULE
*****
 24 27 0 0 0
SMALL
GASTEIGER

@<TRIPOS>ATOM
      1 O          64.9363   88.0916   14.9849 O.2     1  UNL1       -0.2520
      2 C          64.1003   87.6064   13.8378 C.2     1  UNL1        0.3109
      3 N          63.6445   86.1780   13.7934 N.am    1  UNL1       -0.2638
      4 C          64.0246   85.2349   14.8961 C.3     1  UNL1        0.0953
      5 C          63.5688   83.8065   14.8517 C.3     1  UNL1        0.0275
      6 C          62.7329   83.3212   13.7047 C.3     1  UNL1        0.0431
      7 C          62.3528   84.2644   12.6020 C.3     1  UNL1        0.0275
      8 C          62.8086   85.6927   12.6463 C.3     1  UNL1        0.0953
      9 N          63.7202   88.5495   12.7350 N.am    1  UNL1       -0.2434
     10 C          62.8843   88.0643   11.5880 C.3     1  UNL1        0.1001
     11 C          62.5043   89.0075   10.4852 C.3     1  UNL1        0.0267
     12 C          62.9601   90.4358   10.5296 C.3     1  UNL1        0.0294
     13 C          63.7960   90.9211   11.6767 C.ar    1  UNL1       -0.0084
     14 C          64.2518   92.3494   11.7210 C.ar    1  UNL1       -0.0030
     15 C          65.0877   92.8346   12.8681 C.ar    1  UNL1       -0.0002
     16 C          65.4678   91.8915   13.9708 C.ar    1  UNL1        0.0013
     17 C          65.0120   90.4631   13.9265 C.ar    1  UNL1        0.0146
     18 C          64.1761   89.9779   12.7794 C.ar    1  UNL1        0.0513
     19 C          62.2771   81.8929   13.6603 C.ar    1  UNL1        0.0539
     20 C          62.9143   80.7882   12.8706 C.ar    1  UNL1        0.1131
     21 N          62.1351   79.5310   13.1201 N.ar    1  UNL1       -0.2229
     22 C          61.0163   79.8587   14.0641 C.ar    1  UNL1        0.1748
     23 N          61.1041   81.3184   14.3979 N.ar    1  UNL1       -0.3382
     24 H          60.4982   81.8127   14.9961 H       1  UNL1        0.1672
@<TRIPOS>BOND
     1     1     2    2
     2     2     3   am
     3     3     4    1
     4     4     5    1
     5     5     6    1
     6     6    19    1
     7    19    20   ar
     8    20    21   ar
     9    21    22   ar
    10    22    23   ar
    11     6     7    1
    12     7     8    1
    13     2     9   am
    14     9    10    1
    15    10    11    1
    16    11    12    1
    17    12    13    1
    18    13    14   ar
    19    14    15   ar
    20    15    16   ar
    21    16    17   ar
    22    17    18   ar
    23     8     3    1
    24    18     9    1
    25    23    19   ar
    26    18    13   ar
    27    23    24    1
@<TRIPOS>MOLECULE
*****
 24 27 0 0 0
SMALL
GASTEIGER

@<TRIPOS>ATOM
      1 O          61.2174   94.9849   -2.4481 O.2     1  UNL1       -0.2520
      2 C          60.1489   94.6192   -1.4608 C.2     1  UNL1        0.3109
      3 N          58.7069   94.8691   -1.7894 N.am    1  UNL1       -0.2638
      4 C          58.3333   95.4846   -3.1053 C.3     1  UNL1        0.0953
      5 C          56.8911   95.7344   -3.4339 C.3     1  UNL1        0.0275
      6 C          55.8227   95.3687   -2.4467 C.3     1  UNL1        0.0431
      7 C          56.1963   94.7532   -1.1308 C.3     1  UNL1        0.0275
      8 C          57.6383   94.5034   -0.8022 C.3     1  UNL1        0.0953
      9 N          60.5225   94.0037   -0.1449 N.am    1  UNL1       -0.2434
     10 C          59.4541   93.6380    0.8423 C.3     1  UNL1        0.1001
     11 C          59.8277   93.0225    2.1582 C.3     1  UNL1        0.0267
     12 C          61.2698   92.7726    2.4868 C.3     1  UNL1        0.0294
     13 C          62.3383   93.1383    1.4996 C.ar    1  UNL1       -0.0084
     14 C          63.7803   92.8885    1.8282 C.ar    1  UNL1       -0.0030
     15 C          64.8487   93.2542    0.8410 C.ar    1  UNL1       -0.0002
     16 C          64.4751   93.8697   -0.4749 C.ar    1  UNL1        0.0013
     17 C          63.0331   94.1195   -0.8036 C.ar    1  UNL1        0.0146
     18 C          61.9647   93.7538    0.1837 C.ar    1  UNL1        0.0513
     19 C          54.3807   95.6186   -2.7753 C.ar    1  UNL1        0.0539
     20 C          53.8494   96.1244   -4.0837 C.ar    1  UNL1        0.1131
     21 N          52.3571   96.2249   -3.9703 N.ar    1  UNL1       -0.2229
     22 C          51.9660   95.7812   -2.5918 C.ar    1  UNL1        0.1748
     23 N          53.2166   95.4064   -1.8533 N.ar    1  UNL1       -0.3382
     24 H          53.2650   95.0788   -0.9262 H       1  UNL1        0.1672
@<TRIPOS>BOND
     1     1     2    2
     2     2     3   am
     3     3     4    1
     4     4     5    1
     5     5     6    1
     6     6    19    1
     7    19    20   ar
     8    20    21   ar
     9    21    22   ar
    10    22    23   ar
    11     6     7    1
    12     7     8    1
    13     2     9   am
    14     9    10    1
    15    10    11    1
    16    11    12    1
    17    12    13    1
    18    13    14   ar
    19    14    15   ar
    20    15    16   ar
    21    16    17   ar
    22    17    18   ar
    23     8     3    1
    24    18     9    1
    25    23    19   ar
    26    18    13   ar
    27    23    24    1
@<TRIPOS>MOLECULE
*****
 24 27 0 0 0
SMALL
GASTEIGER

@<TRIPOS>ATOM
      1 O          64.5870   86.4600   14.8602 O.2     1  UNL1       -0.2520
      2 C          63.9149   86.2666   13.5331 C.2     1  UNL1        0.3109
      3 N          63.6790   84.8820   13.0066 N.am    1  UNL1       -0.2638
      4 C          64.1152   83.6908   13.8070 C.3     1  UNL1        0.0953
      5 C          63.8793   82.3062   13.2804 C.3     1  UNL1        0.0275
      6 C          63.2073   82.1128   11.9534 C.3     1  UNL1        0.0431
      7 C          62.7711   83.3041   11.1530 C.3     1  UNL1        0.0275
      8 C          63.0069   84.6886   11.6795 C.3     1  UNL1        0.0953
      9 N          63.4787   87.4578   12.7327 N.am    1  UNL1       -0.2434
     10 C          62.8066   87.2645   11.4057 C.3     1  UNL1        0.1001
     11 C          62.3705   88.4557   10.6053 C.3     1  UNL1        0.0267
     12 C          62.6063   89.8403   11.1318 C.3     1  UNL1        0.0294
     13 C          63.2784   90.0337   12.4588 C.ar    1  UNL1       -0.0084
     14 C          63.5143   91.4183   12.9854 C.ar    1  UNL1       -0.0030
     15 C          64.1863   91.6116   14.3124 C.ar    1  UNL1       -0.0002
     16 C          64.6225   90.4204   15.1128 C.ar    1  UNL1        0.0013
     17 C          64.3867   89.0358   14.5863 C.ar    1  UNL1        0.0146
     18 C          63.7146   88.8425   13.2593 C.ar    1  UNL1        0.0513
     19 C          62.9714   80.7283   11.4269 C.ar    1  UNL1        0.0539
     20 C          62.6277   79.5200   12.2466 C.ar    1  UNL1        0.1131
     21 N          62.4817   78.3538   11.3145 N.ar    1  UNL1       -0.2229
     22 C          62.7352   78.8414    9.9187 C.ar    1  UNL1        0.1748
     23 N          63.0379   80.3089    9.9882 N.ar    1  UNL1       -0.3382
     24 H          63.2440   80.8940    9.2238 H       1  UNL1        0.1672
@<TRIPOS>BOND
     1     1     2    2
     2     2     3   am
     3     3     4    1
     4     4     5    1
     5     5     6    1
     6     6    19    1
     7    19    20   ar
     8    20    21   ar
     9    21    22   ar
    10    22    23   ar
    11     6     7    1
    12     7     8    1
    13     2     9   am
    14     9    10    1
    15    10    11    1
    16    11    12    1
    17    12    13    1
    18    13    14   ar
    19    14    15   ar
    20    15    16   ar
    21    16    17   ar
    22    17    18   ar
    23     8     3    1
    24    18     9    1
    25    23    19   ar
    26    18    13   ar
    27    23    24    1
@<TRIPOS>MOLECULE
*****
 24 27 0 0 0
SMALL
GASTEIGER

@<TRIPOS>ATOM
      1 O          62.7895   88.3773   12.6254 O.2     1  UNL1       -0.2520
      2 C          62.3352   87.4986   11.4978 C.2     1  UNL1        0.3109
      3 N          61.5980   88.0926   10.3343 N.am    1  UNL1       -0.2638
      4 C          61.3151   89.5652   10.2984 C.3     1  UNL1        0.0953
      5 C          60.5779   90.1591    9.1348 C.3     1  UNL1        0.0275
      6 C          60.1236   89.2804    8.0072 C.3     1  UNL1        0.0431
      7 C          60.4065   87.8078    8.0431 C.3     1  UNL1        0.0275
      8 C          61.1437   87.2139    9.2066 C.3     1  UNL1        0.0953
      9 N          62.6181   86.0260   11.5337 N.am    1  UNL1       -0.2434
     10 C          62.1639   85.1473   10.4061 C.3     1  UNL1        0.1001
     11 C          62.4468   83.6747   10.4420 C.3     1  UNL1        0.0267
     12 C          63.1840   83.0807   11.6055 C.3     1  UNL1        0.0294
     13 C          63.6383   83.9594   12.7331 C.ar    1  UNL1       -0.0084
     14 C          64.3754   83.3655   13.8966 C.ar    1  UNL1       -0.0030
     15 C          64.8297   84.2442   15.0242 C.ar    1  UNL1       -0.0002
     16 C          64.5468   85.7168   14.9883 C.ar    1  UNL1        0.0013
     17 C          63.8096   86.3108   13.8248 C.ar    1  UNL1        0.0146
     18 C          63.3553   85.4321   12.6972 C.ar    1  UNL1        0.0513
     19 C          59.3864   89.8744    6.8437 C.ar    1  UNL1        0.0539
     20 C          59.9986   90.6502    5.7153 C.ar    1  UNL1        0.1131
     21 N          58.8982   91.0521    4.7785 N.ar    1  UNL1       -0.2229
     22 C          57.6059   90.5247    5.3280 C.ar    1  UNL1        0.1748
     23 N          57.9077   89.7968    6.6044 N.ar    1  UNL1       -0.3382
     24 H          57.2506   89.3471    7.1833 H       1  UNL1        0.1672
@<TRIPOS>BOND
     1     1     2    2
     2     2     3   am
     3     3     4    1
     4     4     5    1
     5     5     6    1
     6     6    19    1
     7    19    20   ar
     8    20    21   ar
     9    21    22   ar
    10    22    23   ar
    11     6     7    1
    12     7     8    1
    13     2     9   am
    14     9    10    1
    15    10    11    1
    16    11    12    1
    17    12    13    1
    18    13    14   ar
    19    14    15   ar
    20    15    16   ar
    21    16    17   ar
    22    17    18   ar
    23     8     3    1
    24    18     9    1
    25    23    19   ar
    26    18    13   ar
    27    23    24    1
@<TRIPOS>MOLECULE
*****
 24 27 0 0 0
SMALL
GASTEIGER

@<TRIPOS>ATOM
      1 O          64.3947   94.1962   -0.4707 O.2     1  UNL1       -0.2520
      2 C          62.8988   94.2918   -0.5297 C.2     1  UNL1        0.3109
      3 N          62.0656   93.6985    0.5674 N.am    1  UNL1       -0.2638
      4 C          62.7280   93.0098    1.7236 C.3     1  UNL1        0.0953
      5 C          61.8947   92.4165    2.8207 C.3     1  UNL1        0.0275
      6 C          60.3989   92.5121    2.7617 C.3     1  UNL1        0.0431
      7 C          59.7364   93.2008    1.6055 C.3     1  UNL1        0.0275
      8 C          60.5697   93.7940    0.5084 C.3     1  UNL1        0.0953
      9 N          62.2364   94.9805   -1.6859 N.am    1  UNL1       -0.2434
     10 C          60.7406   95.0760   -1.7450 C.3     1  UNL1        0.1001
     11 C          60.0781   95.7648   -2.9011 C.3     1  UNL1        0.0267
     12 C          60.9114   96.3580   -3.9982 C.3     1  UNL1        0.0294
     13 C          62.4073   96.2625   -3.9392 C.ar    1  UNL1       -0.0084
     14 C          63.2405   96.8557   -5.0363 C.ar    1  UNL1       -0.0030
     15 C          64.7363   96.7602   -4.9772 C.ar    1  UNL1       -0.0002
     16 C          65.3988   96.0714   -3.8210 C.ar    1  UNL1        0.0013
     17 C          64.5655   95.4782   -2.7239 C.ar    1  UNL1        0.0146
     18 C          63.0697   95.5737   -2.7830 C.ar    1  UNL1        0.0513
     19 C          59.5656   91.9189    3.8588 C.ar    1  UNL1        0.0539
     20 C          60.0771   91.1194    5.0203 C.ar    1  UNL1        0.1131
     21 N          58.9021   90.7273    5.8664 N.ar    1  UNL1       -0.2229
     22 C          57.6645   91.2846    5.2277 C.ar    1  UNL1        0.1748
     23 N          58.0746   92.0210    3.9870 N.ar    1  UNL1       -0.3382
     24 H          57.4711   92.4891    3.3658 H       1  UNL1        0.1672
@<TRIPOS>BOND
     1     1     2    2
     2     2     3   am
     3     3     4    1
     4     4     5    1
     5     5     6    1
     6     6    19    1
     7    19    20   ar
     8    20    21   ar
     9    21    22   ar
    10    22    23   ar
    11     6     7    1
    12     7     8    1
    13     2     9   am
    14     9    10    1
    15    10    11    1
    16    11    12    1
    17    12    13    1
    18    13    14   ar
    19    14    15   ar
    20    15    16   ar
    21    16    17   ar
    22    17    18   ar
    23     8     3    1
    24    18     9    1
    25    23    19   ar
    26    18    13   ar
    27    23    24    1
