@<TRIPOS>MOLECULE
*****
 36 40 0 0 0
SMALL
GASTEIGER

@<TRIPOS>ATOM
      1 C          64.1525   91.3407   13.1001 C.3     1  UNL1        0.1909
      2 C          63.9032   91.3775   11.6215 C.3     1  UNL1        0.1783
      3 O          64.7541   92.4645   11.0347 O.3     1  UNL1       -0.3267
      4 C          65.5293   93.0997   12.1508 C.3     1  UNL1        0.2296
      5 O          65.1576   92.4051   13.4273 O.3     1  UNL1       -0.3255
      6 C          66.0875   93.9648   11.0600 C.ar    1  UNL1        0.0409
      7 C          65.5701   95.3599   10.8704 C.ar    1  UNL1        0.0022
      8 C          66.1283   96.2251    9.7795 C.ar    1  UNL1        0.0113
      9 C          67.2039   95.6951    8.8783 C.ar    1  UNL1        0.0585
     10 CL         67.7621   96.5603    7.7875 Cl      1  UNL1       -0.0822
     11 C          67.7213   94.2999    9.0680 C.ar    1  UNL1        0.0226
     12 C          67.1632   93.4349   10.1587 C.ar    1  UNL1        0.0591
     13 CL         67.6805   92.0398   10.3484 Cl      1  UNL1       -0.0824
     14 C          63.5098   90.4041   14.0797 C.3     1  UNL1        0.2374
     15 O          64.2953   89.2607   14.6504 O.3     1  UNL1       -0.4727
     16 C          63.6565   85.0896   13.0870 C.ar    1  UNL1        0.0481
     17 C          64.3830   85.3022   14.3820 C.ar    1  UNL1        0.0176
     18 C          64.5959   86.6925   14.9031 C.ar    1  UNL1        0.0382
     19 C          64.0824   87.8704   14.1293 C.ar    1  UNL1        0.1388
     20 C          63.3559   87.6578   12.8343 C.ar    1  UNL1        0.0382
     21 C          63.1430   86.2675   12.3131 C.ar    1  UNL1        0.0176
     22 C          62.9638   79.2435    9.5385 C.3     1  UNL1        0.0948
     23 C          62.8049   79.5282   11.0026 C.2     1  UNL1        0.2262
     24 O          62.4331   78.4226   11.9455 O.2     1  UNL1       -0.2749
     25 N          63.0178   80.9186   11.5237 N.am    1  UNL1       -0.2760
     26 C          63.3897   82.0242   10.5807 C.3     1  UNL1        0.1148
     27 C          63.6026   83.4145   11.1018 C.3     1  UNL1        0.1123
     28 N          63.4436   83.6993   12.5659 N.pl3   1  UNL1       -0.3041
     29 C          63.0718   82.5936   13.5089 C.3     1  UNL1        0.1123
     30 C          62.8589   81.2033   12.9878 C.3     1  UNL1        0.1148
     31 C          66.4213   93.9157   13.0389 C.3     1  UNL1        0.1682
     32 N          67.2900   93.2375   14.0564 N.ar    1  UNL1       -0.3025
     33 C          67.6090   93.7540   15.4280 C.ar    1  UNL1        0.0982
     34 C          68.5084   92.7595   16.1003 C.ar    1  UNL1        0.1193
     35 N          68.7452   91.6282   15.1441 N.ar    1  UNL1       -0.2223
     36 C          67.9922   91.9236   13.8810 C.ar    1  UNL1        0.1788
@<TRIPOS>BOND
     1    22    23    1
     2    23    24    2
     3    23    25   am
     4    25    26    1
     5    26    27    1
     6    27    28    1
     7    28    16    1
     8    16    17   ar
     9    17    18   ar
    10    18    19   ar
    11    19    15    1
    12    15    14    1
    13     1    14    1
    14     1     2    1
    15     2     3    1
    16     3     4    1
    17     4    31    1
    18    31    32    1
    19    32    33   ar
    20    33    34   ar
    21    34    35   ar
    22    35    36   ar
    23     4     6    1
    24     6     7   ar
    25     7     8   ar
    26     8     9   ar
    27     9    10    1
    28     9    11   ar
    29    11    12   ar
    30    12    13    1
    31     4     5    1
    32    19    20   ar
    33    20    21   ar
    34    28    29    1
    35    29    30    1
    36    30    25    1
    37    21    16   ar
    38     5     1    1
    39    36    32   ar
    40    12     6   ar
@<TRIPOS>MOLECULE
*****
 36 40 0 0 0
SMALL
GASTEIGER

@<TRIPOS>ATOM
      1 C          65.8206   92.5260   14.3919 C.3     1  UNL1        0.1909
      2 C          66.4382   93.8919   14.3398 C.3     1  UNL1        0.1783
      3 O          66.5497   94.2957   12.8995 O.3     1  UNL1       -0.3267
      4 C          66.0008   93.1792   12.0614 C.3     1  UNL1        0.2296
      5 O          65.5502   92.0855   12.9837 O.3     1  UNL1       -0.3255
      6 C          66.3520   94.0789   10.9137 C.ar    1  UNL1        0.0409
      7 C          65.6125   95.3693   10.7187 C.ar    1  UNL1        0.0022
      8 C          65.9637   96.2690    9.5710 C.ar    1  UNL1        0.0113
      9 C          67.0544   95.8783    8.6183 C.ar    1  UNL1        0.0585
     10 CL         67.4056   96.7779    7.4706 Cl      1  UNL1       -0.0822
     11 C          67.7939   94.5878    8.8133 C.ar    1  UNL1        0.0226
     12 C          67.4427   93.6882    9.9609 C.ar    1  UNL1        0.0591
     13 CL         68.1822   92.3978   10.1559 Cl      1  UNL1       -0.0824
     14 C          65.5251   91.7387   15.6341 C.3     1  UNL1        0.2374
     15 O          64.1906   91.0746   15.8014 O.3     1  UNL1       -0.4727
     16 C          63.7033   86.7170   14.7895 C.ar    1  UNL1        0.0481
     17 C          64.2457   87.6688   13.7649 C.ar    1  UNL1        0.0176
     18 C          64.4082   89.1213   14.1022 C.ar    1  UNL1        0.0382
     19 C          64.0282   89.6220   15.4641 C.ar    1  UNL1        0.1388
     20 C          63.4858   88.6702   16.4887 C.ar    1  UNL1        0.0382
     21 C          63.3233   87.2177   16.1514 C.ar    1  UNL1        0.0176
     22 C          62.7032   80.4966   12.0406 C.3     1  UNL1        0.0948
     23 C          63.0536   80.9069   13.4402 C.2     1  UNL1        0.2262
     24 O          63.2414   79.8647   14.5024 O.2     1  UNL1       -0.2749
     25 N          63.2160   82.3594   13.7775 N.am    1  UNL1       -0.2760
     26 C          63.0281   83.4016   12.7152 C.3     1  UNL1        0.1148
     27 C          63.1906   84.8541   13.0526 C.3     1  UNL1        0.1123
     28 N          63.5409   85.2645   14.4521 N.pl3   1  UNL1       -0.3041
     29 C          63.7288   84.2223   15.5144 C.3     1  UNL1        0.1123
     30 C          63.5663   82.7697   15.1771 C.3     1  UNL1        0.1148
     31 C          65.5254   92.2508   10.9833 C.3     1  UNL1        0.1682
     32 N          64.1476   91.6621   11.0543 N.ar    1  UNL1       -0.3025
     33 C          63.2651   91.3401    9.8850 C.ar    1  UNL1        0.0982
     34 C          61.9826   90.7710   10.4151 C.ar    1  UNL1        0.1193
     35 N          62.0724   90.7412   11.9121 N.ar    1  UNL1       -0.2223
     36 C          63.4105   91.2920   12.3071 C.ar    1  UNL1        0.1788
@<TRIPOS>BOND
     1    22    23    1
     2    23    24    2
     3    23    25   am
     4    25    26    1
     5    26    27    1
     6    27    28    1
     7    28    16    1
     8    16    17   ar
     9    17    18   ar
    10    18    19   ar
    11    19    15    1
    12    15    14    1
    13     1    14    1
    14     1     2    1
    15     2     3    1
    16     3     4    1
    17     4    31    1
    18    31    32    1
    19    32    33   ar
    20    33    34   ar
    21    34    35   ar
    22    35    36   ar
    23     4     6    1
    24     6     7   ar
    25     7     8   ar
    26     8     9   ar
    27     9    10    1
    28     9    11   ar
    29    11    12   ar
    30    12    13    1
    31     4     5    1
    32    19    20   ar
    33    20    21   ar
    34    28    29    1
    35    29    30    1
    36    30    25    1
    37    21    16   ar
    38     5     1    1
    39    36    32   ar
    40    12     6   ar
@<TRIPOS>MOLECULE
*****
 36 40 0 0 0
SMALL
GASTEIGER

@<TRIPOS>ATOM
      1 C          63.3534   89.7023   15.7481 C.3     1  UNL1        0.1909
      2 C          63.9278   91.0728   15.9526 C.3     1  UNL1        0.1783
      3 O          64.4281   91.5681   14.6281 O.3     1  UNL1       -0.3267
      4 C          64.1629   90.5038   13.6050 C.3     1  UNL1        0.2296
      5 O          63.4987   89.3506   14.2971 O.3     1  UNL1       -0.3255
      6 C          64.7994   91.4769   12.6575 C.ar    1  UNL1        0.0409
      7 C          64.0646   91.9135   11.4248 C.ar    1  UNL1        0.0022
      8 C          64.7012   92.8866   10.4773 C.ar    1  UNL1        0.0113
      9 C          66.0725   93.4232   10.7625 C.ar    1  UNL1        0.0585
     10 CL         66.7091   94.3964    9.8150 Cl      1  UNL1       -0.0822
     11 C          66.8074   92.9867   11.9952 C.ar    1  UNL1        0.0226
     12 C          66.1709   92.0136   12.9427 C.ar    1  UNL1        0.0591
     13 CL         66.9056   91.5770   14.1753 Cl      1  UNL1       -0.0824
     14 C          62.7412   88.8357   16.8084 C.3     1  UNL1        0.2374
     15 O          63.3978   87.5427   17.1917 O.3     1  UNL1       -0.4727
     16 C          63.1343   83.9854   14.4483 C.ar    1  UNL1        0.0481
     17 C          62.1904   84.1102   15.6072 C.ar    1  UNL1        0.0176
     18 C          62.2782   85.2960   16.5217 C.ar    1  UNL1        0.0382
     19 C          63.3100   86.3569   16.2772 C.ar    1  UNL1        0.1388
     20 C          64.2539   86.2321   15.1182 C.ar    1  UNL1        0.0382
     21 C          64.1661   85.0463   14.2037 C.ar    1  UNL1        0.0176
     22 C          63.0353   79.4080    9.3211 C.3     1  UNL1        0.0948
     23 C          62.7831   79.2423   10.7904 C.2     1  UNL1        0.2262
     24 O          62.4431   77.8909   11.3452 O.2     1  UNL1       -0.2749
     25 N          62.8709   80.4281   11.7049 N.am    1  UNL1       -0.2760
     26 C          63.2109   81.7796   11.1500 C.3     1  UNL1        0.1148
     27 C          63.2987   82.9653   12.0645 C.3     1  UNL1        0.1123
     28 N          63.0465   82.7996   13.5338 N.pl3   1  UNL1       -0.3041
     29 C          62.7065   81.4482   14.0886 C.3     1  UNL1        0.1123
     30 C          62.6187   80.2624   13.1742 C.3     1  UNL1        0.1148
     31 C          64.0307   89.6428   12.3837 C.3     1  UNL1        0.1682
     32 N          62.6916   89.0871   11.9991 N.ar    1  UNL1       -0.3025
     33 C          61.4043   89.8543   11.9345 C.ar    1  UNL1        0.0982
     34 C          60.3218   88.9080   11.5070 C.ar    1  UNL1        0.1193
     35 N          60.9401   87.5560   11.3074 N.ar    1  UNL1       -0.2223
     36 C          62.4047   87.6667   11.6116 C.ar    1  UNL1        0.1788
@<TRIPOS>BOND
     1    22    23    1
     2    23    24    2
     3    23    25   am
     4    25    26    1
     5    26    27    1
     6    27    28    1
     7    28    16    1
     8    16    17   ar
     9    17    18   ar
    10    18    19   ar
    11    19    15    1
    12    15    14    1
    13     1    14    1
    14     1     2    1
    15     2     3    1
    16     3     4    1
    17     4    31    1
    18    31    32    1
    19    32    33   ar
    20    33    34   ar
    21    34    35   ar
    22    35    36   ar
    23     4     6    1
    24     6     7   ar
    25     7     8   ar
    26     8     9   ar
    27     9    10    1
    28     9    11   ar
    29    11    12   ar
    30    12    13    1
    31     4     5    1
    32    19    20   ar
    33    20    21   ar
    34    28    29    1
    35    29    30    1
    36    30    25    1
    37    21    16   ar
    38     5     1    1
    39    36    32   ar
    40    12     6   ar
@<TRIPOS>MOLECULE
*****
 36 40 0 0 0
SMALL
GASTEIGER

@<TRIPOS>ATOM
      1 C          59.4806   88.0466    7.5203 C.3     1  UNL1        0.1909
      2 C          59.2137   86.5752    7.6371 C.3     1  UNL1        0.1783
      3 O          60.2588   85.9843    8.5363 O.3     1  UNL1       -0.3267
      4 C          61.1718   87.0906    8.9753 C.3     1  UNL1        0.2296
      5 O          60.6909   88.3652    8.3474 O.3     1  UNL1       -0.3255
      6 C          61.8742   85.9997    9.7278 C.ar    1  UNL1        0.0409
      7 C          61.6478   85.8397   11.2021 C.ar    1  UNL1        0.0022
      8 C          62.3503   84.7487   11.9547 C.ar    1  UNL1        0.0113
      9 C          63.2791   83.8178   11.2331 C.ar    1  UNL1        0.0585
     10 CL         63.9815   82.7269   11.9857 Cl      1  UNL1       -0.0822
     11 C          63.5055   83.9778    9.7589 C.ar    1  UNL1        0.0226
     12 C          62.8030   85.0687    9.0063 C.ar    1  UNL1        0.0591
     13 CL         63.0294   85.2287    7.5322 Cl      1  UNL1       -0.0824
     14 C          58.6783   89.0272    6.7174 C.3     1  UNL1        0.2374
     15 O          59.0741   90.4737    6.6875 O.3     1  UNL1       -0.4727
     16 C          60.9827   92.2085    3.0000 C.ar    1  UNL1        0.0481
     17 C          59.5758   92.5815    3.3625 C.ar    1  UNL1        0.0176
     18 C          58.9396   92.0032    4.5917 C.ar    1  UNL1        0.0382
     19 C          59.7103   91.0520    5.4583 C.ar    1  UNL1        0.1388
     20 C          61.1172   90.6791    5.0958 C.ar    1  UNL1        0.0382
     21 C          61.7534   91.2573    3.8667 C.ar    1  UNL1        0.0176
     22 C          62.9103   94.2841   -3.2631 C.3     1  UNL1        0.0948
     23 C          63.5274   94.5216   -1.9167 C.2     1  UNL1        0.2262
     24 O          64.7807   95.3374   -1.7995 O.2     1  UNL1       -0.2749
     25 N          62.8912   93.9433   -0.6875 N.am    1  UNL1       -0.2760
     26 C          61.6380   93.1275   -0.8047 C.3     1  UNL1        0.1148
     27 C          61.0018   92.5493    0.4244 C.3     1  UNL1        0.1123
     28 N          61.6189   92.7868    1.7708 N.pl3   1  UNL1       -0.3041
     29 C          62.8721   93.6026    1.8880 C.3     1  UNL1        0.1123
     30 C          63.5083   94.1809    0.6588 C.3     1  UNL1        0.1148
     31 C          62.2316   87.9689    9.5716 C.3     1  UNL1        0.1682
     32 N          61.9353   88.7707   10.8041 N.ar    1  UNL1       -0.3025
     33 C          62.9490   89.4256   11.6947 C.ar    1  UNL1        0.0982
     34 C          62.2134   90.1181   12.8035 C.ar    1  UNL1        0.1193
     35 N          60.7450   89.8911   12.5981 N.ar    1  UNL1       -0.2223
     36 C          60.5731   89.0584   11.3624 C.ar    1  UNL1        0.1788
@<TRIPOS>BOND
     1    22    23    1
     2    23    24    2
     3    23    25   am
     4    25    26    1
     5    26    27    1
     6    27    28    1
     7    28    16    1
     8    16    17   ar
     9    17    18   ar
    10    18    19   ar
    11    19    15    1
    12    15    14    1
    13     1    14    1
    14     1     2    1
    15     2     3    1
    16     3     4    1
    17     4    31    1
    18    31    32    1
    19    32    33   ar
    20    33    34   ar
    21    34    35   ar
    22    35    36   ar
    23     4     6    1
    24     6     7   ar
    25     7     8   ar
    26     8     9   ar
    27     9    10    1
    28     9    11   ar
    29    11    12   ar
    30    12    13    1
    31     4     5    1
    32    19    20   ar
    33    20    21   ar
    34    28    29    1
    35    29    30    1
    36    30    25    1
    37    21    16   ar
    38     5     1    1
    39    36    32   ar
    40    12     6   ar
@<TRIPOS>MOLECULE
*****
 36 40 0 0 0
SMALL
GASTEIGER

@<TRIPOS>ATOM
      1 C          64.0033   91.6256   10.9488 C.3     1  UNL1        0.1909
      2 C          63.8688   91.3609   12.4191 C.3     1  UNL1        0.1783
      3 O          65.1256   91.8284   13.0912 O.3     1  UNL1       -0.3267
      4 C          66.0369   92.3822   12.0363 C.3     1  UNL1        0.2296
      5 O          65.3434   92.2569   10.7122 O.3     1  UNL1       -0.3255
      6 C          66.9614   92.6343   13.1902 C.ar    1  UNL1        0.0409
      7 C          66.5181   93.5021   14.3307 C.ar    1  UNL1        0.0022
      8 C          67.4426   93.7542   15.4847 C.ar    1  UNL1        0.0113
      9 C          68.8104   93.1386   15.4982 C.ar    1  UNL1        0.0585
     10 CL         69.7350   93.3908   16.6522 Cl      1  UNL1       -0.0822
     11 C          69.2537   92.2709   14.3578 C.ar    1  UNL1        0.0226
     12 C          68.3293   92.0188   13.2039 C.ar    1  UNL1        0.0591
     13 CL         68.7725   91.1510   12.0634 Cl      1  UNL1       -0.0824
     14 C          62.9779   91.3139    9.8993 C.3     1  UNL1        0.2374
     15 O          61.7734   90.4911   10.2487 O.3     1  UNL1       -0.4727
     16 C          62.2641   86.1851   11.4603 C.ar    1  UNL1        0.0481
     17 C          61.4392   86.5366   10.2578 C.ar    1  UNL1        0.0176
     18 C          61.2756   87.9719    9.8540 C.ar    1  UNL1        0.0382
     19 C          61.9369   89.0558   10.6526 C.ar    1  UNL1        0.1388
     20 C          62.7619   88.7043   11.8550 C.ar    1  UNL1        0.0382
     21 C          62.9255   87.2690   12.2588 C.ar    1  UNL1        0.0176
     22 C          62.8803   79.3632   12.0361 C.3     1  UNL1        0.0948
     23 C          62.9185   80.4439   13.0757 C.2     1  UNL1        0.2262
     24 O          63.1202   80.0892   14.5191 O.2     1  UNL1       -0.2749
     25 N          62.7549   81.8792   12.6718 N.am    1  UNL1       -0.2760
     26 C          62.5532   82.2339   11.2284 C.3     1  UNL1        0.1148
     27 C          62.3896   83.6692   10.8246 C.3     1  UNL1        0.1123
     28 N          62.4277   84.7498   11.8641 N.pl3   1  UNL1       -0.3041
     29 C          62.6294   84.3951   13.3075 C.3     1  UNL1        0.1123
     30 C          62.7930   82.9598   13.7114 C.3     1  UNL1        0.1148
     31 C          67.1415   92.9887   11.2225 C.3     1  UNL1        0.1682
     32 N          66.9438   94.3226   10.5656 N.ar    1  UNL1       -0.3025
     33 C          66.2122   95.4938   11.1511 C.ar    1  UNL1        0.0982
     34 C          66.2593   96.6146   10.1553 C.ar    1  UNL1        0.1193
     35 N          67.0201   96.1360    8.9544 N.ar    1  UNL1       -0.2223
     36 C          67.4432   94.7195    9.2080 C.ar    1  UNL1        0.1788
@<TRIPOS>BOND
     1    22    23    1
     2    23    24    2
     3    23    25   am
     4    25    26    1
     5    26    27    1
     6    27    28    1
     7    28    16    1
     8    16    17   ar
     9    17    18   ar
    10    18    19   ar
    11    19    15    1
    12    15    14    1
    13     1    14    1
    14     1     2    1
    15     2     3    1
    16     3     4    1
    17     4    31    1
    18    31    32    1
    19    32    33   ar
    20    33    34   ar
    21    34    35   ar
    22    35    36   ar
    23     4     6    1
    24     6     7   ar
    25     7     8   ar
    26     8     9   ar
    27     9    10    1
    28     9    11   ar
    29    11    12   ar
    30    12    13    1
    31     4     5    1
    32    19    20   ar
    33    20    21   ar
    34    28    29    1
    35    29    30    1
    36    30    25    1
    37    21    16   ar
    38     5     1    1
    39    36    32   ar
    40    12     6   ar
@<TRIPOS>MOLECULE
*****
 36 40 0 0 0
SMALL
GASTEIGER

@<TRIPOS>ATOM
      1 C          59.8467   87.5044    7.7998 C.3     1  UNL1        0.1909
      2 C          60.0286   86.0438    7.5108 C.3     1  UNL1        0.1783
      3 O          60.9578   85.4790    8.5440 O.3     1  UNL1       -0.3267
      4 C          61.3502   86.5905    9.4717 C.3     1  UNL1        0.2296
      5 O          60.6635   87.8424    9.0118 O.3     1  UNL1       -0.3255
      6 C          62.1540   85.5246   10.1554 C.ar    1  UNL1        0.0409
      7 C          61.9967   85.2961   11.6296 C.ar    1  UNL1        0.0022
      8 C          62.8005   84.2301   12.3133 C.ar    1  UNL1        0.0113
      9 C          63.7617   83.3926   11.5229 C.ar    1  UNL1        0.0585
     10 CL         64.5655   82.3266   12.2067 Cl      1  UNL1       -0.0822
     11 C          63.9190   83.6211   10.0487 C.ar    1  UNL1        0.0226
     12 C          63.1152   84.6870    9.3650 C.ar    1  UNL1        0.0591
     13 CL         63.2725   84.9155    7.8909 Cl      1  UNL1       -0.0824
     14 C          58.9972   88.4594    7.0148 C.3     1  UNL1        0.2374
     15 O          59.2662   89.9335    7.0839 O.3     1  UNL1       -0.4727
     16 C          59.8017   92.3029    3.2959 C.ar    1  UNL1        0.0481
     17 C          58.4356   92.1448    3.8949 C.ar    1  UNL1        0.0176
     18 C          58.2571   91.3550    5.1576 C.ar    1  UNL1        0.0382
     19 C          59.4447   90.7233    5.8212 C.ar    1  UNL1        0.1388
     20 C          60.8107   90.8813    5.2223 C.ar    1  UNL1        0.0382
     21 C          60.9892   91.6712    3.9596 C.ar    1  UNL1        0.0176
     22 C          61.0742   96.8530   -1.6968 C.3     1  UNL1        0.0948
     23 C          60.5156   95.4621   -1.7548 C.2     1  UNL1        0.2262
     24 O          60.1356   94.8610   -3.0755 O.2     1  UNL1       -0.2749
     25 N          60.3372   94.6723   -0.4921 N.am    1  UNL1       -0.2760
     26 C          60.7172   95.2734    0.8286 C.3     1  UNL1        0.1148
     27 C          60.5387   94.4836    2.0912 C.3     1  UNL1        0.1123
     28 N          59.9802   93.0927    2.0332 N.pl3   1  UNL1       -0.3041
     29 C          59.6001   92.4916    0.7126 C.3     1  UNL1        0.1123
     30 C          59.7786   93.2814   -0.5501 C.3     1  UNL1        0.1148
     31 C          61.9106   87.4793   10.5423 C.3     1  UNL1        0.1682
     32 N          61.1389   88.6818   10.9989 N.ar    1  UNL1       -0.3025
     33 C          59.7666   88.6710   11.6041 C.ar    1  UNL1        0.0982
     34 C          59.3836   90.0887   11.9098 C.ar    1  UNL1        0.1193
     35 N          60.5194   90.9757   11.4934 N.ar    1  UNL1       -0.2223
     36 C          61.6042   90.1061   10.9305 C.ar    1  UNL1        0.1788
@<TRIPOS>BOND
     1    22    23    1
     2    23    24    2
     3    23    25   am
     4    25    26    1
     5    26    27    1
     6    27    28    1
     7    28    16    1
     8    16    17   ar
     9    17    18   ar
    10    18    19   ar
    11    19    15    1
    12    15    14    1
    13     1    14    1
    14     1     2    1
    15     2     3    1
    16     3     4    1
    17     4    31    1
    18    31    32    1
    19    32    33   ar
    20    33    34   ar
    21    34    35   ar
    22    35    36   ar
    23     4     6    1
    24     6     7   ar
    25     7     8   ar
    26     8     9   ar
    27     9    10    1
    28     9    11   ar
    29    11    12   ar
    30    12    13    1
    31     4     5    1
    32    19    20   ar
    33    20    21   ar
    34    28    29    1
    35    29    30    1
    36    30    25    1
    37    21    16   ar
    38     5     1    1
    39    36    32   ar
    40    12     6   ar
@<TRIPOS>MOLECULE
*****
 36 40 0 0 0
SMALL
GASTEIGER

@<TRIPOS>ATOM
      1 C          64.3482   91.9675   11.0774 C.3     1  UNL1        0.1909
      2 C          65.1331   93.2457   11.0727 C.3     1  UNL1        0.1783
      3 O          66.0840   93.2100   12.2322 O.3     1  UNL1       -0.3267
      4 C          65.8868   91.9097   12.9536 C.3     1  UNL1        0.2296
      5 O          64.8140   91.1417   12.2399 O.3     1  UNL1       -0.3255
      6 C          66.9655   92.4285   13.8575 C.ar    1  UNL1        0.0409
      7 C          66.6060   93.2546   15.0569 C.ar    1  UNL1        0.0022
      8 C          67.6847   93.7734   15.9609 C.ar    1  UNL1        0.0113
      9 C          69.1228   93.4661   15.6657 C.ar    1  UNL1        0.0585
     10 CL         70.2015   93.9849   16.5697 Cl      1  UNL1       -0.0822
     11 C          69.4824   92.6400   14.4663 C.ar    1  UNL1        0.0226
     12 C          68.4037   92.1212   13.5623 C.ar    1  UNL1        0.0591
     13 CL         68.7632   91.2951   12.3630 Cl      1  UNL1       -0.0824
     14 C          63.2843   91.5825   10.0926 C.3     1  UNL1        0.2374
     15 O          62.0751   90.8237   10.5531 O.3     1  UNL1       -0.4727
     16 C          62.4272   86.4691   11.6315 C.ar    1  UNL1        0.0481
     17 C          63.1427   87.5041   12.4480 C.ar    1  UNL1        0.0176
     18 C          63.0253   88.9557   12.0885 C.ar    1  UNL1        0.0382
     19 C          62.1925   89.3722   10.9126 C.ar    1  UNL1        0.1388
     20 C          61.4770   88.3371   10.0961 C.ar    1  UNL1        0.0382
     21 C          61.5943   86.8856   10.4556 C.ar    1  UNL1        0.0176
     22 C          62.8675   79.6189   11.9927 C.3     1  UNL1        0.0948
     23 C          62.8966   80.6629   13.0694 C.2     1  UNL1        0.2262
     24 O          63.0431   80.2553   14.5054 O.2     1  UNL1       -0.2749
     25 N          62.7793   82.1144   12.7099 N.am    1  UNL1       -0.2760
     26 C          62.6328   82.5220   11.2738 C.3     1  UNL1        0.1148
     27 C          62.5155   83.9735   10.9143 C.3     1  UNL1        0.1123
     28 N          62.5446   85.0175   11.9910 N.pl3   1  UNL1       -0.3041
     29 C          62.6910   84.6100   13.4271 C.3     1  UNL1        0.1123
     30 C          62.8084   83.1584   13.7865 C.3     1  UNL1        0.1148
     31 C          65.9151   90.7178   13.8639 C.3     1  UNL1        0.1682
     32 N          64.8419   90.5367   14.8961 N.ar    1  UNL1       -0.3025
     33 C          64.1560   89.2474   15.2380 C.ar    1  UNL1        0.0982
     34 C          63.1564   89.5270   16.3208 C.ar    1  UNL1        0.1193
     35 N          63.2246   90.9892   16.6482 N.ar    1  UNL1       -0.2223
     36 C          64.2663   91.6133   15.7676 C.ar    1  UNL1        0.1788
@<TRIPOS>BOND
     1    22    23    1
     2    23    24    2
     3    23    25   am
     4    25    26    1
     5    26    27    1
     6    27    28    1
     7    28    16    1
     8    16    17   ar
     9    17    18   ar
    10    18    19   ar
    11    19    15    1
    12    15    14    1
    13     1    14    1
    14     1     2    1
    15     2     3    1
    16     3     4    1
    17     4    31    1
    18    31    32    1
    19    32    33   ar
    20    33    34   ar
    21    34    35   ar
    22    35    36   ar
    23     4     6    1
    24     6     7   ar
    25     7     8   ar
    26     8     9   ar
    27     9    10    1
    28     9    11   ar
    29    11    12   ar
    30    12    13    1
    31     4     5    1
    32    19    20   ar
    33    20    21   ar
    34    28    29    1
    35    29    30    1
    36    30    25    1
    37    21    16   ar
    38     5     1    1
    39    36    32   ar
    40    12     6   ar
@<TRIPOS>MOLECULE
*****
 36 40 0 0 0
SMALL
GASTEIGER

@<TRIPOS>ATOM
      1 C          59.6563   91.8016    4.5730 C.3     1  UNL1        0.1909
      2 C          61.0940   91.4074    4.4074 C.3     1  UNL1        0.1783
      3 O          61.6835   92.2516    3.3166 O.3     1  UNL1       -0.3267
      4 C          60.6101   93.1676    2.8080 C.3     1  UNL1        0.2296
      5 O          59.3571   92.8896    3.5845 O.3     1  UNL1       -0.3255
      6 C          61.6855   93.6586    1.8849 C.ar    1  UNL1        0.0409
      7 C          62.2638   95.0303    2.0696 C.ar    1  UNL1        0.0022
      8 C          63.3394   95.5213    1.1465 C.ar    1  UNL1        0.0113
      9 C          63.8366   94.6407    0.0387 C.ar    1  UNL1        0.0585
     10 CL         64.9121   95.1318   -0.8845 Cl      1  UNL1       -0.0822
     11 C          63.2582   93.2690   -0.1460 C.ar    1  UNL1        0.0226
     12 C          62.1828   92.7780    0.7771 C.ar    1  UNL1        0.0591
     13 CL         61.6045   91.4064    0.5924 Cl      1  UNL1       -0.0824
     14 C          58.6877   91.2116    5.5547 C.3     1  UNL1        0.2374
     15 O          58.6325   89.7259    5.7533 O.3     1  UNL1       -0.4727
     16 C          60.8494   87.8299    9.1797 C.ar    1  UNL1        0.0481
     17 C          60.1181   86.9699    8.1920 C.ar    1  UNL1        0.0176
     18 C          59.3791   87.6019    7.0498 C.ar    1  UNL1        0.0382
     19 C          59.3714   89.0939    6.8954 C.ar    1  UNL1        0.1388
     20 C          60.1027   89.9539    7.8831 C.ar    1  UNL1        0.0382
     21 C          60.8417   89.3219    9.0253 C.ar    1  UNL1        0.0176
     22 C          64.5430   86.1614   14.7316 C.3     1  UNL1        0.0948
     23 C          63.8052   85.3019   13.7483 C.2     1  UNL1        0.2262
     24 O          63.8064   83.8104   13.9072 O.2     1  UNL1       -0.2749
     25 N          63.0663   85.9339   12.6062 N.am    1  UNL1       -0.2760
     26 C          63.0651   87.4254   12.4473 C.3     1  UNL1        0.1148
     27 C          62.3261   88.0574   11.3051 C.3     1  UNL1        0.1123
     28 N          61.5883   87.1979   10.3219 N.pl3   1  UNL1       -0.3041
     29 C          61.5895   85.7064   10.4808 C.3     1  UNL1        0.1123
     30 C          62.3284   85.0744   11.6229 C.3     1  UNL1        0.1148
     31 C          59.7614   94.1863    2.1065 C.3     1  UNL1        0.1682
     32 N          59.2648   93.9198    0.7164 N.ar    1  UNL1       -0.3025
     33 C          58.4984   92.7098    0.2709 C.ar    1  UNL1        0.0982
     34 C          58.2073   92.8587   -1.1931 C.ar    1  UNL1        0.1193
     35 N          58.7938   94.1607   -1.6522 N.ar    1  UNL1       -0.2223
     36 C          59.4474   94.8165   -0.4721 C.ar    1  UNL1        0.1788
@<TRIPOS>BOND
     1    22    23    1
     2    23    24    2
     3    23    25   am
     4    25    26    1
     5    26    27    1
     6    27    28    1
     7    28    16    1
     8    16    17   ar
     9    17    18   ar
    10    18    19   ar
    11    19    15    1
    12    15    14    1
    13     1    14    1
    14     1     2    1
    15     2     3    1
    16     3     4    1
    17     4    31    1
    18    31    32    1
    19    32    33   ar
    20    33    34   ar
    21    34    35   ar
    22    35    36   ar
    23     4     6    1
    24     6     7   ar
    25     7     8   ar
    26     8     9   ar
    27     9    10    1
    28     9    11   ar
    29    11    12   ar
    30    12    13    1
    31     4     5    1
    32    19    20   ar
    33    20    21   ar
    34    28    29    1
    35    29    30    1
    36    30    25    1
    37    21    16   ar
    38     5     1    1
    39    36    32   ar
    40    12     6   ar
@<TRIPOS>MOLECULE
*****
 36 40 0 0 0
SMALL
GASTEIGER

@<TRIPOS>ATOM
      1 C          60.7883   87.6512    9.7965 C.3     1  UNL1        0.1909
      2 C          60.5201   87.2527   11.2175 C.3     1  UNL1        0.1783
      3 O          61.3334   86.0285   11.5171 O.3     1  UNL1       -0.3267
      4 C          62.1043   85.6703   10.2812 C.3     1  UNL1        0.2296
      5 O          61.7675   86.6732    9.2177 O.3     1  UNL1       -0.3255
      6 C          62.6251   84.5434   11.1229 C.ar    1  UNL1        0.0409
      7 C          62.4740   83.1261   10.6553 C.ar    1  UNL1        0.0022
      8 C          62.9948   81.9990   11.4971 C.ar    1  UNL1        0.0113
      9 C          63.6666   82.2892   12.8065 C.ar    1  UNL1        0.0585
     10 CL         64.1874   81.1622   13.6483 Cl      1  UNL1       -0.0822
     11 C          63.8176   83.7065   13.2741 C.ar    1  UNL1        0.0226
     12 C          63.2969   84.8335   12.4324 C.ar    1  UNL1        0.0591
     13 CL         63.4479   86.2507   12.8999 Cl      1  UNL1       -0.0824
     14 C          60.1836   88.8221    9.0799 C.3     1  UNL1        0.2374
     15 O          60.3029   90.1999    9.6607 O.3     1  UNL1       -0.4727
     16 C          63.8765   91.2813   12.1727 C.ar    1  UNL1        0.0481
     17 C          63.8742   91.5817   10.7031 C.ar    1  UNL1        0.0176
     18 C          62.6830   91.2213    9.8658 C.ar    1  UNL1        0.0382
     19 C          61.4941   90.5604   10.4980 C.ar    1  UNL1        0.1388
     20 C          61.4964   90.2599   11.9676 C.ar    1  UNL1        0.0382
     21 C          62.6876   90.6204   12.8049 C.ar    1  UNL1        0.0176
     22 C          68.9434   91.9472   16.7697 C.3     1  UNL1        0.0948
     23 C          68.6413   92.7231   15.5221 C.2     1  UNL1        0.2262
     24 O          69.5303   93.8594   15.1118 O.2     1  UNL1       -0.2749
     25 N          67.4501   92.3626   14.6847 N.am    1  UNL1       -0.2760
     26 C          66.5611   91.2263   15.0950 C.3     1  UNL1        0.1148
     27 C          65.3699   90.8659   14.2577 C.3     1  UNL1        0.1123
     28 N          65.0677   91.6417   13.0101 N.pl3   1  UNL1       -0.3041
     29 C          65.9567   92.7780   12.5997 C.3     1  UNL1        0.1123
     30 C          67.1479   93.1385   13.4371 C.3     1  UNL1        0.1148
     31 C          62.9841   85.0765    9.2212 C.3     1  UNL1        0.1682
     32 N          62.4439   84.8447    7.8412 N.ar    1  UNL1       -0.3025
     33 C          63.2538   84.5274    6.6192 C.ar    1  UNL1        0.0982
     34 C          62.3094   84.3761    5.4637 C.ar    1  UNL1        0.1193
     35 N          60.9159   84.6000    5.9716 N.ar    1  UNL1       -0.2223
     36 C          60.9990   84.8896    7.4410 C.ar    1  UNL1        0.1788
@<TRIPOS>BOND
     1    22    23    1
     2    23    24    2
     3    23    25   am
     4    25    26    1
     5    26    27    1
     6    27    28    1
     7    28    16    1
     8    16    17   ar
     9    17    18   ar
    10    18    19   ar
    11    19    15    1
    12    15    14    1
    13     1    14    1
    14     1     2    1
    15     2     3    1
    16     3     4    1
    17     4    31    1
    18    31    32    1
    19    32    33   ar
    20    33    34   ar
    21    34    35   ar
    22    35    36   ar
    23     4     6    1
    24     6     7   ar
    25     7     8   ar
    26     8     9   ar
    27     9    10    1
    28     9    11   ar
    29    11    12   ar
    30    12    13    1
    31     4     5    1
    32    19    20   ar
    33    20    21   ar
    34    28    29    1
    35    29    30    1
    36    30    25    1
    37    21    16   ar
    38     5     1    1
    39    36    32   ar
    40    12     6   ar
