@<TRIPOS>MOLECULE
*****
 37 43 0 0 0
SMALL
GASTEIGER

@<TRIPOS>ATOM
      1 C          61.2184   93.1571    2.5553 C.2     1  UNL1       -0.0378
      2 C          62.1325   92.1490    3.1864 C.2     1  UNL1       -0.0080
      3 C          61.6035   91.2020    4.2225 C.2     1  UNL1        0.0022
      4 C          60.1605   91.2632    4.6274 C.2     1  UNL1        0.0350
      5 C          59.3601   90.4653    5.6137 C.2     1  UNL1        0.1040
      6 N          57.9514   90.9802    5.5922 N.2     1  UNL1       -0.1483
      7 N          57.8812   92.0964    4.5925 N.2     1  UNL1       -0.1520
      8 C          59.2464   92.2713    3.9963 C.2     1  UNL1        0.0860
      9 C          59.7755   93.2183    2.9603 C.3     1  UNL1        0.0697
     10 O          63.2245   96.5720   -0.9646 O.2     1  UNL1       -0.2744
     11 C          62.1268   95.5505   -1.0056 C.2     1  UNL1        0.2293
     12 N          61.2579   95.2370   -2.1874 N.am    1  UNL1       -0.2839
     13 C          60.2993   94.1560   -1.7842 C.ar    1  UNL1        0.0467
     14 C          59.2104   93.4487   -2.5352 C.ar    1  UNL1        0.0144
     15 C          58.3980   92.3869   -1.8552 C.ar    1  UNL1        0.0013
     16 C          58.6745   92.0323   -0.4242 C.ar    1  UNL1       -0.0002
     17 C          59.7634   92.7396    0.3268 C.ar    1  UNL1       -0.0026
     18 C          60.5758   93.8014   -0.3532 C.ar    1  UNL1       -0.0008
     19 C          61.7052   94.6633    0.1280 C.3     1  UNL1        0.0927
     20 C          62.7060   95.1851    1.1160 C.3     1  UNL1        0.0179
     21 C          61.7475   94.1041    1.5192 C.3     1  UNL1        0.0315
     22 H          61.3080   95.6655   -3.0723 H       1  UNL1        0.1549
     23 C          59.8776   89.3484    6.4710 C.2     1  UNL1        0.0209
     24 C          60.1420   89.5827    7.9288 C.2     1  UNL1        0.0016
     25 C          60.6595   88.4658    8.7861 C.ar    1  UNL1        0.0001
     26 C          61.4778   88.7733   10.0050 C.ar    1  UNL1        0.0013
     27 C          61.9953   87.6565   10.8623 C.ar    1  UNL1        0.0145
     28 C          61.6944   86.2322   10.5007 C.ar    1  UNL1        0.0479
     29 C          60.8760   85.9246    9.2817 C.ar    1  UNL1        0.0145
     30 C          60.3586   87.0414    8.4244 C.ar    1  UNL1        0.0013
     31 N          62.2119   85.1153   11.3580 N.pl3   1  UNL1       -0.3047
     32 C          62.5882   83.8040   10.7346 C.3     1  UNL1        0.1079
     33 C          63.1057   82.6872   11.5920 C.3     1  UNL1        0.0903
     34 N          63.2467   82.8817   13.0726 N.3     1  UNL1       -0.2946
     35 C          62.8703   84.1932   13.6959 C.3     1  UNL1        0.0903
     36 C          62.3529   85.3099   12.8386 C.3     1  UNL1        0.1079
     37 H          64.2280   82.7191   13.2988 H       1  UNL1        0.1233
@<TRIPOS>BOND
     1    10    11    2
     2    11    12   am
     3    12    13    1
     4    13    14   ar
     5    14    15   ar
     6    15    16   ar
     7    16    17   ar
     8    17    18   ar
     9    18    19    1
    10    19    20    1
    11    20    21    1
    12    21     1    1
    13     1     2    2
    14     2     3    1
    15     3     4    2
    16     4     5    1
    17     5    23    1
    18    23    24    2
    19    24    25    1
    20    25    26   ar
    21    26    27   ar
    22    27    28   ar
    23    28    31    1
    24    31    32    1
    25    32    33    1
    26    33    34    1
    27    34    35    1
    28    35    36    1
    29    28    29   ar
    30    29    30   ar
    31     5     6    2
    32     6     7    1
    33     7     8    2
    34     8     9    1
    35    19    11    1
    36     9     1    1
    37    18    13   ar
    38    21    19    1
    39     8     4    1
    40    30    25   ar
    41    36    31    1
    42    12    22    1
    43    34    37    1
@<TRIPOS>MOLECULE
*****
 37 43 0 0 0
SMALL
GASTEIGER

@<TRIPOS>ATOM
      1 C          62.0462   85.3366   10.8030 C.2     1  UNL1       -0.0378
      2 C          62.5473   85.7365    9.4468 C.2     1  UNL1       -0.0080
      3 C          62.0835   87.0200    8.8243 C.2     1  UNL1        0.0022
      4 C          61.1186   87.9037    9.5580 C.2     1  UNL1        0.0350
      5 C          60.4890   89.2172    9.2000 C.2     1  UNL1        0.1040
      6 N          59.5988   89.6292   10.3349 N.2     1  UNL1       -0.1483
      7 N          59.6783   88.5701   11.3943 N.2     1  UNL1       -0.1520
      8 C          60.6176   87.5038   10.9141 C.2     1  UNL1        0.0860
      9 C          61.0814   86.2202   11.5366 C.3     1  UNL1        0.0697
     10 O          63.5925   80.6989   12.8464 O.2     1  UNL1       -0.2744
     11 C          63.7685   82.1322   13.2522 C.2     1  UNL1        0.2293
     12 N          64.5051   82.6214   14.4639 N.am    1  UNL1       -0.2839
     13 C          64.4306   84.1195   14.4781 C.ar    1  UNL1        0.0467
     14 C          64.9743   85.1424   15.4310 C.ar    1  UNL1        0.0144
     15 C          64.7355   86.6020   15.1810 C.ar    1  UNL1        0.0013
     16 C          63.9529   87.0387   13.9781 C.ar    1  UNL1       -0.0002
     17 C          63.4092   86.0158   13.0252 C.ar    1  UNL1       -0.0026
     18 C          63.6481   84.5562   13.2753 C.ar    1  UNL1       -0.0008
     19 C          63.2389   83.3280   12.5176 C.3     1  UNL1        0.0927
     20 C          62.5844   82.5550   11.4111 C.3     1  UNL1        0.0179
     21 C          62.5100   84.0530   11.4254 C.3     1  UNL1        0.0315
     22 H          64.9579   82.0582   15.1324 H       1  UNL1        0.1549
     23 C          60.7107   89.9842    7.9301 C.2     1  UNL1        0.0209
     24 C          59.6529   89.9958    6.8666 C.2     1  UNL1        0.0016
     25 C          59.8746   90.7628    5.5967 C.ar    1  UNL1        0.0001
     26 C          58.7415   91.5204    4.9706 C.ar    1  UNL1        0.0013
     27 C          58.9631   92.2874    3.7007 C.ar    1  UNL1        0.0145
     28 C          60.3179   92.2967    3.0569 C.ar    1  UNL1        0.0479
     29 C          61.4511   91.5391    3.6830 C.ar    1  UNL1        0.0145
     30 C          61.2294   90.7721    4.9529 C.ar    1  UNL1        0.0013
     31 N          60.5395   93.0637    1.7870 N.pl3   1  UNL1       -0.3047
     32 C          61.1643   92.3884    0.6024 C.3     1  UNL1        0.1079
     33 C          61.3860   93.1554   -0.6675 C.3     1  UNL1        0.0903
     34 N          60.9828   94.5976   -0.7527 N.3     1  UNL1       -0.2946
     35 C          60.3579   95.2729    0.4320 C.3     1  UNL1        0.0903
     36 C          60.1363   94.5060    1.7018 C.3     1  UNL1        0.1079
     37 H          60.3149   94.6718   -1.5201 H       1  UNL1        0.1233
@<TRIPOS>BOND
     1    10    11    2
     2    11    12   am
     3    12    13    1
     4    13    14   ar
     5    14    15   ar
     6    15    16   ar
     7    16    17   ar
     8    17    18   ar
     9    18    19    1
    10    19    20    1
    11    20    21    1
    12    21     1    1
    13     1     2    2
    14     2     3    1
    15     3     4    2
    16     4     5    1
    17     5    23    1
    18    23    24    2
    19    24    25    1
    20    25    26   ar
    21    26    27   ar
    22    27    28   ar
    23    28    31    1
    24    31    32    1
    25    32    33    1
    26    33    34    1
    27    34    35    1
    28    35    36    1
    29    28    29   ar
    30    29    30   ar
    31     5     6    2
    32     6     7    1
    33     7     8    2
    34     8     9    1
    35    19    11    1
    36     9     1    1
    37    18    13   ar
    38    21    19    1
    39     8     4    1
    40    30    25   ar
    41    36    31    1
    42    12    22    1
    43    34    37    1
@<TRIPOS>MOLECULE
*****
 37 43 0 0 0
SMALL
GASTEIGER

@<TRIPOS>ATOM
      1 C          62.0368   87.5530   11.1844 C.2     1  UNL1       -0.0378
      2 C          62.5040   88.7953   10.4855 C.2     1  UNL1       -0.0080
      3 C          61.7553   89.3113    9.2925 C.2     1  UNL1        0.0022
      4 C          60.5395   88.5849    8.7984 C.2     1  UNL1        0.0350
      5 C          59.6052   88.8532    7.6560 C.2     1  UNL1        0.1040
      6 N          58.5605   87.7767    7.6488 N.2     1  UNL1       -0.1483
      7 N          58.8493   86.8431    8.7868 N.2     1  UNL1       -0.1520
      8 C          60.0723   87.3426    9.4972 C.2     1  UNL1        0.0860
      9 C          60.8210   86.8266   10.6903 C.3     1  UNL1        0.0697
     10 O          64.6409   85.9097   15.4964 O.2     1  UNL1       -0.2744
     11 C          64.3461   85.3024   14.1569 C.2     1  UNL1        0.2293
     12 N          64.7730   83.9415   13.6926 N.am    1  UNL1       -0.2839
     13 C          64.2633   83.7474   12.2952 C.ar    1  UNL1        0.0467
     14 C          64.3790   82.6010   11.3349 C.ar    1  UNL1        0.0144
     15 C          63.7526   82.6955    9.9752 C.ar    1  UNL1        0.0013
     16 C          63.0107   83.9365    9.5759 C.ar    1  UNL1       -0.0002
     17 C          62.8950   85.0829   10.5363 C.ar    1  UNL1       -0.0026
     18 C          63.5214   84.9884   11.8959 C.ar    1  UNL1       -0.0008
     19 C          63.5725   85.9494   13.0465 C.3     1  UNL1        0.0927
     20 C          63.2952   87.2311   13.7747 C.3     1  UNL1        0.0179
     21 C          62.7855   87.0370   12.3775 C.3     1  UNL1        0.0315
     22 H          65.2960   83.2900   14.2135 H       1  UNL1        0.1549
     23 C          59.6990   89.9972    6.6903 C.2     1  UNL1        0.0209
     24 C          60.6230   89.9102    5.5120 C.2     1  UNL1        0.0016
     25 C          60.7168   91.0542    4.5463 C.ar    1  UNL1        0.0001
     26 C          61.9611   91.2475    3.7311 C.ar    1  UNL1        0.0013
     27 C          62.0549   92.3914    2.7654 C.ar    1  UNL1        0.0145
     28 C          60.9044   93.3421    2.6149 C.ar    1  UNL1        0.0479
     29 C          59.6601   93.1489    3.4301 C.ar    1  UNL1        0.0145
     30 C          59.5663   92.0049    4.3958 C.ar    1  UNL1        0.0013
     31 N          60.9982   94.4861    1.6492 N.pl3   1  UNL1       -0.3047
     32 C          59.7493   95.0936    1.0827 C.3     1  UNL1        0.1079
     33 C          59.8431   96.2376    0.1170 C.3     1  UNL1        0.0903
     34 N          61.1858   96.7740   -0.2821 N.3     1  UNL1       -0.2946
     35 C          62.4348   96.1665    0.2845 C.3     1  UNL1        0.0903
     36 C          62.3410   95.0226    1.2502 C.3     1  UNL1        0.1079
     37 H          61.1964   97.7613   -0.0262 H       1  UNL1        0.1233
@<TRIPOS>BOND
     1    10    11    2
     2    11    12   am
     3    12    13    1
     4    13    14   ar
     5    14    15   ar
     6    15    16   ar
     7    16    17   ar
     8    17    18   ar
     9    18    19    1
    10    19    20    1
    11    20    21    1
    12    21     1    1
    13     1     2    2
    14     2     3    1
    15     3     4    2
    16     4     5    1
    17     5    23    1
    18    23    24    2
    19    24    25    1
    20    25    26   ar
    21    26    27   ar
    22    27    28   ar
    23    28    31    1
    24    31    32    1
    25    32    33    1
    26    33    34    1
    27    34    35    1
    28    35    36    1
    29    28    29   ar
    30    29    30   ar
    31     5     6    2
    32     6     7    1
    33     7     8    2
    34     8     9    1
    35    19    11    1
    36     9     1    1
    37    18    13   ar
    38    21    19    1
    39     8     4    1
    40    30    25   ar
    41    36    31    1
    42    12    22    1
    43    34    37    1
@<TRIPOS>MOLECULE
*****
 37 43 0 0 0
SMALL
GASTEIGER

@<TRIPOS>ATOM
      1 C          61.8980   87.2872   10.7548 C.2     1  UNL1       -0.0378
      2 C          62.4211   88.5016   10.0462 C.2     1  UNL1       -0.0080
      3 C          61.6574   89.0851    8.8947 C.2     1  UNL1        0.0022
      4 C          60.3705   88.4544    8.4517 C.2     1  UNL1        0.0350
      5 C          59.4062   88.8037    7.3571 C.2     1  UNL1        0.1040
      6 N          58.2871   87.8054    7.3891 N.2     1  UNL1       -0.1483
      7 N          58.5599   86.8390    8.5035 N.2     1  UNL1       -0.1520
      8 C          59.8475   87.2401    9.1601 C.2     1  UNL1        0.0860
      9 C          60.6113   86.6565   10.3117 C.3     1  UNL1        0.0697
     10 O          64.5407   85.0361   14.7578 O.2     1  UNL1       -0.2744
     11 C          64.3155   86.4522   14.3174 C.2     1  UNL1        0.2293
     12 N          64.8506   87.6808   14.9913 N.am    1  UNL1       -0.2839
     13 C          64.3815   88.8763   14.2162 C.ar    1  UNL1        0.0467
     14 C          64.5989   90.3475   14.4113 C.ar    1  UNL1        0.0144
     15 C          63.9914   91.3289   13.4534 C.ar    1  UNL1        0.0013
     16 C          63.1664   90.8392   12.3004 C.ar    1  UNL1       -0.0002
     17 C          62.9489   89.3679   12.1053 C.ar    1  UNL1       -0.0026
     18 C          63.5564   88.3865   13.0632 C.ar    1  UNL1       -0.0008
     19 C          63.5157   86.8883   13.1257 C.3     1  UNL1        0.0927
     20 C          63.1310   85.5083   12.6815 C.3     1  UNL1        0.0179
     21 C          62.6619   86.7036   11.9064 C.3     1  UNL1        0.0315
     22 H          65.4112   87.6993   15.8004 H       1  UNL1        0.1549
     23 C          59.5378   89.9502    6.3988 C.2     1  UNL1        0.0209
     24 C          60.6674   89.9772    5.4123 C.2     1  UNL1        0.0016
     25 C          60.7990   91.1237    4.4540 C.ar    1  UNL1        0.0001
     26 C          62.0708   91.3133    3.6815 C.ar    1  UNL1        0.0013
     27 C          62.2024   92.4598    2.7232 C.ar    1  UNL1        0.0145
     28 C          61.0622   93.4166    2.5374 C.ar    1  UNL1        0.0479
     29 C          59.7904   93.2270    3.3098 C.ar    1  UNL1        0.0145
     30 C          59.6588   92.0805    4.2681 C.ar    1  UNL1        0.0013
     31 N          61.1938   94.5630    1.5790 N.pl3   1  UNL1       -0.3047
     32 C          62.5527   95.0810    1.2115 C.3     1  UNL1        0.1079
     33 C          62.6843   96.2275    0.2532 C.3     1  UNL1        0.0903
     34 N          61.4570   96.8559   -0.3376 N.3     1  UNL1       -0.2946
     35 C          60.0982   96.3378    0.0301 C.3     1  UNL1        0.0903
     36 C          59.9666   95.1914    0.9883 C.3     1  UNL1        0.1079
     37 H          61.5407   96.7700   -1.3505 H       1  UNL1        0.1233
@<TRIPOS>BOND
     1    10    11    2
     2    11    12   am
     3    12    13    1
     4    13    14   ar
     5    14    15   ar
     6    15    16   ar
     7    16    17   ar
     8    17    18   ar
     9    18    19    1
    10    19    20    1
    11    20    21    1
    12    21     1    1
    13     1     2    2
    14     2     3    1
    15     3     4    2
    16     4     5    1
    17     5    23    1
    18    23    24    2
    19    24    25    1
    20    25    26   ar
    21    26    27   ar
    22    27    28   ar
    23    28    31    1
    24    31    32    1
    25    32    33    1
    26    33    34    1
    27    34    35    1
    28    35    36    1
    29    28    29   ar
    30    29    30   ar
    31     5     6    2
    32     6     7    1
    33     7     8    2
    34     8     9    1
    35    19    11    1
    36     9     1    1
    37    18    13   ar
    38    21    19    1
    39     8     4    1
    40    30    25   ar
    41    36    31    1
    42    12    22    1
    43    34    37    1
@<TRIPOS>MOLECULE
*****
 37 43 0 0 0
SMALL
GASTEIGER

@<TRIPOS>ATOM
      1 C          61.1381   92.7549    1.6507 C.2     1  UNL1       -0.0378
      2 C          62.1180   91.8197    2.2952 C.2     1  UNL1       -0.0080
      3 C          61.7574   91.1182    3.5710 C.2     1  UNL1        0.0022
      4 C          60.4169   91.3518    4.2024 C.2     1  UNL1        0.0350
      5 C          59.7857   90.8059    5.4487 C.2     1  UNL1        0.1040
      6 N          58.4157   91.4037    5.5746 N.2     1  UNL1       -0.1483
      7 N          58.2003   92.3191    4.4060 N.2     1  UNL1       -0.1520
      8 C          59.4371   92.2870    3.5579 C.2     1  UNL1        0.0860
      9 C          59.7977   92.9885    2.2820 C.3     1  UNL1        0.0697
     10 O          62.2605   95.1275   -2.9522 O.2     1  UNL1       -0.2744
     11 C          62.8258   95.2129   -1.5655 C.2     1  UNL1        0.2293
     12 N          63.9625   96.0890   -1.1291 N.am    1  UNL1       -0.2839
     13 C          64.1930   95.8548    0.3344 C.ar    1  UNL1        0.0467
     14 C          65.1798   96.4391    1.3012 C.ar    1  UNL1        0.0144
     15 C          65.1722   96.0027    2.7363 C.ar    1  UNL1        0.0013
     16 C          64.1779   94.9818    3.2045 C.ar    1  UNL1       -0.0002
     17 C          63.1912   94.3974    2.2377 C.ar    1  UNL1       -0.0026
     18 C          63.1987   94.8339    0.8027 C.ar    1  UNL1       -0.0008
     19 C          62.3538   94.4372   -0.3715 C.3     1  UNL1        0.0927
     20 C          61.2683   93.6907   -1.0887 C.3     1  UNL1        0.0179
     21 C          61.4987   93.4565    0.3747 C.3     1  UNL1        0.0315
     22 H          64.4685   96.7089   -1.7027 H       1  UNL1        0.1549
     23 C          60.4142   89.8330    6.4020 C.2     1  UNL1        0.0209
     24 C          60.0346   89.8532    7.8530 C.2     1  UNL1        0.0016
     25 C          60.6630   88.8803    8.8062 C.ar    1  UNL1        0.0001
     26 C          60.4669   87.4061    8.6111 C.ar    1  UNL1        0.0013
     27 C          61.0953   86.4332    9.5643 C.ar    1  UNL1        0.0145
     28 C          61.9199   86.9345   10.7126 C.ar    1  UNL1        0.0479
     29 C          62.1161   88.4089   10.9078 C.ar    1  UNL1        0.0145
     30 C          61.4877   89.3817    9.9546 C.ar    1  UNL1        0.0013
     31 N          62.5483   85.9616   11.6659 N.pl3   1  UNL1       -0.3047
     32 C          62.5254   84.4930   11.3620 C.3     1  UNL1        0.1079
     33 C          63.1538   83.5201   12.3153 C.3     1  UNL1        0.0903
     34 N          63.8050   84.0159   13.5722 N.3     1  UNL1       -0.2946
     35 C          63.8278   85.4846   13.8760 C.3     1  UNL1        0.0903
     36 C          63.1995   86.4575   12.9229 C.3     1  UNL1        0.1079
     37 H          64.7765   83.7063   13.5425 H       1  UNL1        0.1233
@<TRIPOS>BOND
     1    10    11    2
     2    11    12   am
     3    12    13    1
     4    13    14   ar
     5    14    15   ar
     6    15    16   ar
     7    16    17   ar
     8    17    18   ar
     9    18    19    1
    10    19    20    1
    11    20    21    1
    12    21     1    1
    13     1     2    2
    14     2     3    1
    15     3     4    2
    16     4     5    1
    17     5    23    1
    18    23    24    2
    19    24    25    1
    20    25    26   ar
    21    26    27   ar
    22    27    28   ar
    23    28    31    1
    24    31    32    1
    25    32    33    1
    26    33    34    1
    27    34    35    1
    28    35    36    1
    29    28    29   ar
    30    29    30   ar
    31     5     6    2
    32     6     7    1
    33     7     8    2
    34     8     9    1
    35    19    11    1
    36     9     1    1
    37    18    13   ar
    38    21    19    1
    39     8     4    1
    40    30    25   ar
    41    36    31    1
    42    12    22    1
    43    34    37    1
@<TRIPOS>MOLECULE
*****
 37 43 0 0 0
SMALL
GASTEIGER

@<TRIPOS>ATOM
      1 C          72.3985   73.2656   14.5052 C.2     1  UNL1       -0.0378
      2 C          72.5801   73.3523   13.0186 C.2     1  UNL1       -0.0080
      3 C          72.5566   74.6882   12.3368 C.2     1  UNL1        0.0022
      4 C          72.3514   75.9373   13.1415 C.2     1  UNL1        0.0350
      5 C          72.2819   77.3835   12.7497 C.2     1  UNL1        0.1040
      6 N          72.0573   78.1907   13.9939 N.2     1  UNL1       -0.1483
      7 N          71.9880   77.2432   15.1547 N.2     1  UNL1       -0.1520
      8 C          72.1697   75.8507   14.6280 C.2     1  UNL1        0.0860
      9 C          72.1933   74.5147   15.3098 C.3     1  UNL1        0.0697
     10 O          72.6170   68.6240   17.0514 O.2     1  UNL1       -0.2744
     11 C          71.8768   69.1226   15.8457 C.2     1  UNL1        0.2293
     12 N          70.9284   68.3246   15.0010 N.am    1  UNL1       -0.2839
     13 C          70.4206   69.2155   13.9063 C.ar    1  UNL1        0.0467
     14 C          69.4623   68.9729   12.7781 C.ar    1  UNL1        0.0144
     15 C          69.1387   70.0791   11.8181 C.ar    1  UNL1        0.0013
     16 C          69.7733   71.4278   11.9862 C.ar    1  UNL1       -0.0002
     17 C          70.7316   71.6703   13.1144 C.ar    1  UNL1       -0.0026
     18 C          71.0552   70.5642   14.0745 C.ar    1  UNL1       -0.0008
     19 C          71.9552   70.5068   15.2731 C.3     1  UNL1        0.0927
     20 C          72.9299   71.0387   16.2816 C.3     1  UNL1        0.0179
     21 C          72.4221   71.9296   15.1869 C.3     1  UNL1        0.0315
     22 H          70.6824   67.3816   15.1406 H       1  UNL1        0.1549
     23 C          72.4138   77.9272   11.3579 C.2     1  UNL1        0.0209
     24 C          72.3936   79.4091   11.1265 C.2     1  UNL1        0.0016
     25 C          72.5255   79.9528    9.7347 C.ar    1  UNL1        0.0001
     26 C          73.1937   79.1343    8.6700 C.ar    1  UNL1        0.0013
     27 C          73.3256   79.6780    7.2782 C.ar    1  UNL1        0.0145
     28 C          72.7893   81.0401    6.9512 C.ar    1  UNL1        0.0479
     29 C          72.1211   81.8587    8.0159 C.ar    1  UNL1        0.0145
     30 C          71.9892   81.3150    9.4077 C.ar    1  UNL1        0.0013
     31 N          72.9212   81.5838    5.5594 N.pl3   1  UNL1       -0.3047
     32 C          72.4746   82.9831    5.2554 C.3     1  UNL1        0.1079
     33 C          72.6065   83.5268    3.8636 C.3     1  UNL1        0.0903
     34 N          73.1851   82.6711    2.7759 N.3     1  UNL1       -0.2946
     35 C          73.6317   81.2718    3.0799 C.3     1  UNL1        0.0903
     36 C          73.4998   80.7282    4.4716 C.3     1  UNL1        0.1079
     37 H          73.9986   83.1674    2.4122 H       1  UNL1        0.1233
@<TRIPOS>BOND
     1    10    11    2
     2    11    12   am
     3    12    13    1
     4    13    14   ar
     5    14    15   ar
     6    15    16   ar
     7    16    17   ar
     8    17    18   ar
     9    18    19    1
    10    19    20    1
    11    20    21    1
    12    21     1    1
    13     1     2    2
    14     2     3    1
    15     3     4    2
    16     4     5    1
    17     5    23    1
    18    23    24    2
    19    24    25    1
    20    25    26   ar
    21    26    27   ar
    22    27    28   ar
    23    28    31    1
    24    31    32    1
    25    32    33    1
    26    33    34    1
    27    34    35    1
    28    35    36    1
    29    28    29   ar
    30    29    30   ar
    31     5     6    2
    32     6     7    1
    33     7     8    2
    34     8     9    1
    35    19    11    1
    36     9     1    1
    37    18    13   ar
    38    21    19    1
    39     8     4    1
    40    30    25   ar
    41    36    31    1
    42    12    22    1
    43    34    37    1
@<TRIPOS>MOLECULE
*****
 37 43 0 0 0
SMALL
GASTEIGER

@<TRIPOS>ATOM
      1 C          61.7051   89.5200   11.7228 C.2     1  UNL1       -0.0378
      2 C          61.6138   90.6718   10.7661 C.2     1  UNL1       -0.0080
      3 C          61.0143   90.4712    9.4058 C.2     1  UNL1        0.0022
      4 C          60.5061   89.1188    9.0022 C.2     1  UNL1        0.0350
      5 C          59.8697   88.6220    7.7381 C.2     1  UNL1        0.1040
      6 N          59.5676   87.1632    7.9134 N.2     1  UNL1       -0.1483
      7 N          60.0174   86.7585    9.2860 N.2     1  UNL1       -0.1520
      8 C          60.5974   87.9671    9.9589 C.2     1  UNL1        0.0860
      9 C          61.1969   88.1677   11.3192 C.3     1  UNL1        0.0697
     10 O          63.6738   90.1071   16.6069 O.2     1  UNL1       -0.2744
     11 C          64.0627   90.6220   15.2528 C.2     1  UNL1        0.2293
     12 N          65.2271   91.5182   14.9513 N.am    1  UNL1       -0.2839
     13 C          65.2395   91.7812   13.4746 C.ar    1  UNL1        0.0467
     14 C          66.1547   92.5939   12.6075 C.ar    1  UNL1        0.0144
     15 C          65.9130   92.6731   11.1293 C.ar    1  UNL1        0.0013
     16 C          64.7562   91.9395   10.5181 C.ar    1  UNL1       -0.0002
     17 C          63.8410   91.1267   11.3852 C.ar    1  UNL1       -0.0026
     18 C          64.0827   91.0476   12.8634 C.ar    1  UNL1       -0.0008
     19 C          63.3554   90.3312   13.9624 C.3     1  UNL1        0.0927
     20 C          62.2923   89.4576   14.5597 C.3     1  UNL1        0.0179
     21 C          62.3047   89.7206   13.0831 C.3     1  UNL1        0.0315
     22 H          65.8703   91.8716   15.6075 H       1  UNL1        0.1549
     23 C          59.5852   89.4403    6.5136 C.2     1  UNL1        0.0209
     24 C          60.5905   90.4441    6.0321 C.2     1  UNL1        0.0016
     25 C          60.3060   91.2624    4.8075 C.ar    1  UNL1        0.0001
     26 C          58.8938   91.6348    4.4657 C.ar    1  UNL1        0.0013
     27 C          58.6093   92.4531    3.2411 C.ar    1  UNL1        0.0145
     28 C          59.7371   92.8990    2.3584 C.ar    1  UNL1        0.0479
     29 C          61.1494   92.5266    2.7002 C.ar    1  UNL1        0.0145
     30 C          61.4339   91.7083    3.9248 C.ar    1  UNL1        0.0013
     31 N          59.4526   93.7173    1.1339 N.pl3   1  UNL1       -0.3047
     32 C          58.5630   93.1710    0.0568 C.3     1  UNL1        0.1079
     33 C          58.2786   93.9893   -1.1677 C.3     1  UNL1        0.0903
     34 N          58.8837   95.3539   -1.3151 N.3     1  UNL1       -0.2946
     35 C          59.7733   95.9001   -0.2380 C.3     1  UNL1        0.0903
     36 C          60.0577   95.0819    0.9865 C.3     1  UNL1        0.1079
     37 H          58.1094   96.0098   -1.4183 H       1  UNL1        0.1233
@<TRIPOS>BOND
     1    10    11    2
     2    11    12   am
     3    12    13    1
     4    13    14   ar
     5    14    15   ar
     6    15    16   ar
     7    16    17   ar
     8    17    18   ar
     9    18    19    1
    10    19    20    1
    11    20    21    1
    12    21     1    1
    13     1     2    2
    14     2     3    1
    15     3     4    2
    16     4     5    1
    17     5    23    1
    18    23    24    2
    19    24    25    1
    20    25    26   ar
    21    26    27   ar
    22    27    28   ar
    23    28    31    1
    24    31    32    1
    25    32    33    1
    26    33    34    1
    27    34    35    1
    28    35    36    1
    29    28    29   ar
    30    29    30   ar
    31     5     6    2
    32     6     7    1
    33     7     8    2
    34     8     9    1
    35    19    11    1
    36     9     1    1
    37    18    13   ar
    38    21    19    1
    39     8     4    1
    40    30    25   ar
    41    36    31    1
    42    12    22    1
    43    34    37    1
