@<TRIPOS>MOLECULE
*****
 45 48 0 0 0
SMALL
GASTEIGER

@<TRIPOS>ATOM
      1 C          62.0109   89.0950   11.6111 C.3     1  UNL1        0.0779
      2 C          63.1299   90.0527   11.8955 C.ar    1  UNL1        0.0373
      3 C          63.5401   91.0560   10.8587 C.ar    1  UNL1        0.0023
      4 C          64.6590   92.0137   11.1431 C.ar    1  UNL1        0.0183
      5 C          65.0692   93.0171   10.1063 C.ar    1  UNL1        0.0118
      6 C          66.1881   93.9748   10.3907 C.ar    1  UNL1        0.0685
      7 C          66.8968   93.9291   11.7119 C.ar    1  UNL1        0.0118
      8 C          66.4866   92.9257   12.7487 C.ar    1  UNL1        0.0199
      9 C          65.3677   91.9680   12.4643 C.ar    1  UNL1        0.0844
     10 N          64.9576   90.9647   13.5011 N.ar    1  UNL1       -0.2119
     11 C          63.8386   90.0069   13.2167 C.ar    1  UNL1        0.2211
     12 C          66.5983   94.9781    9.3539 C.1     1  UNL1        0.1004
     13 N          67.0085   95.9815    8.3170 N.1     1  UNL1       -0.1908
     14 O          63.4284   89.0036   14.2535 O.3     1  UNL1       -0.4563
     15 C          63.4025   89.3903   15.7026 C.3     1  UNL1        0.2542
     16 C          62.9353   86.0455    9.2454 C.ar    1  UNL1        0.2257
     17 C          62.6301   87.4399    9.7066 C.ar    1  UNL1        0.0539
     18 C          62.3161   87.7006   11.1500 C.ar    1  UNL1       -0.0083
     19 C          62.3073   86.5671   12.1322 C.ar    1  UNL1        0.0307
     20 C          62.6125   85.1727   11.6711 C.ar    1  UNL1        0.1346
     21 N          62.9265   84.9119   10.2277 N.ar    1  UNL1       -0.1967
     22 N          62.6037   84.0391   12.6534 N.pl3   1  UNL1       -0.2897
     23 C          62.6222   82.6217   12.1631 C.3     1  UNL1        0.1136
     24 C          62.5763   84.3230   14.1261 C.3     1  UNL1        0.1136
     25 O          63.2493   85.7848    7.8020 O.3     1  UNL1       -0.4602
     26 C          62.6252   84.4417    5.6673 C.3     1  UNL1        0.0512
     27 C          62.8002   84.5078    7.1556 C.3     1  UNL1        0.2072
     28 C          60.5868   89.5317   11.7878 C.3     1  UNL1        0.1161
     29 O          60.8858   89.9345   13.2015 O.3     1  UNL1       -0.3820
     30 H          61.7376   90.3974   13.2325 H       1  UNL1        0.2107
     31 C          60.2879   89.1289   10.3742 C.ar    1  UNL1        0.0117
     32 C          60.3078   90.1562    9.2814 C.ar    1  UNL1        0.0559
     33 C          60.0089   89.7534    7.8678 C.ar    1  UNL1        0.2272
     34 N          59.6900   88.3233    7.5469 N.ar    1  UNL1       -0.1767
     35 C          59.6701   87.2959    8.6396 C.ar    1  UNL1        0.2272
     36 C          59.9691   87.6987   10.0533 C.ar    1  UNL1        0.0559
     37 O          60.0288   90.7808    6.7750 O.3     1  UNL1       -0.4561
     38 C          59.0829   90.6623    5.6168 C.3     1  UNL1        0.2542
     39 O          59.3513   85.8657    8.3187 O.3     1  UNL1       -0.4561
     40 C          59.8122   85.2671    7.0229 C.3     1  UNL1        0.2542
     41 C          59.1628   89.9684   11.9645 C.3     1  UNL1        0.0491
     42 C          58.0669   88.9459   12.0261 C.3     1  UNL1        0.0750
     43 N          57.5594   88.4696   13.3549 N.3     1  UNL1       -0.2702
     44 C          58.4571   88.5023   14.5561 C.3     1  UNL1        0.0897
     45 C          56.1542   87.9604   13.4823 C.3     1  UNL1        0.0897
@<TRIPOS>BOND
     1    26    27    1
     2    27    25    1
     3    25    16    1
     4    16    17   ar
     5    17    18   ar
     6     1    18    1
     7     1     2    1
     8     2     3   ar
     9     3     4   ar
    10     4     5   ar
    11     5     6   ar
    12     6    12    1
    13    12    13    3
    14     6     7   ar
    15     7     8   ar
    16     8     9   ar
    17     9    10   ar
    18    10    11   ar
    19    11    14    1
    20    14    15    1
    21     1    28    1
    22    28    29    1
    23    28    41    1
    24    41    42    1
    25    42    43    1
    26    43    44    1
    27    43    45    1
    28    28    31    1
    29    31    32   ar
    30    32    33   ar
    31    33    37    1
    32    37    38    1
    33    33    34   ar
    34    34    35   ar
    35    35    39    1
    36    39    40    1
    37    35    36   ar
    38    18    19   ar
    39    19    20   ar
    40    20    22    1
    41    22    23    1
    42    22    24    1
    43    20    21   ar
    44    21    16   ar
    45    11     2   ar
    46    36    31   ar
    47     9     4   ar
    48    29    30    1
@<TRIPOS>MOLECULE
*****
 45 48 0 0 0
SMALL
GASTEIGER

@<TRIPOS>ATOM
      1 C          61.9945   89.1046   11.5838 C.3     1  UNL1        0.0779
      2 C          63.1141   90.0613   11.8695 C.ar    1  UNL1        0.0373
      3 C          63.5286   91.0621   10.8320 C.ar    1  UNL1        0.0023
      4 C          64.6481   92.0186   11.1177 C.ar    1  UNL1        0.0183
      5 C          65.0627   93.0194   10.0801 C.ar    1  UNL1        0.0118
      6 C          66.1822   93.9761   10.3659 C.ar    1  UNL1        0.0685
      7 C          66.8871   93.9318   11.6891 C.ar    1  UNL1        0.0118
      8 C          66.4726   92.9310   12.7267 C.ar    1  UNL1        0.0199
      9 C          65.3531   91.9745   12.4410 C.ar    1  UNL1        0.0844
     10 N          64.9386   90.9737   13.4786 N.ar    1  UNL1       -0.2119
     11 C          63.8190   90.0170   13.1928 C.ar    1  UNL1        0.2211
     12 C          66.5968   94.9769    9.3283 C.1     1  UNL1        0.1004
     13 N          67.0113   95.9777    8.2907 N.1     1  UNL1       -0.1908
     14 O          63.4045   89.0162   14.2304 O.3     1  UNL1       -0.4563
     15 C          63.4177   89.3921   15.6824 C.3     1  UNL1        0.2542
     16 C          62.9056   86.0705    9.1935 C.ar    1  UNL1        0.2257
     17 C          62.6015   87.4616    9.6650 C.ar    1  UNL1        0.0539
     18 C          62.2986   87.7136   11.1123 C.ar    1  UNL1       -0.0083
     19 C          62.2999   86.5744   12.0882 C.ar    1  UNL1        0.0307
     20 C          62.6040   85.1832   11.6167 C.ar    1  UNL1        0.1346
     21 N          62.9068   84.9313   10.1694 N.ar    1  UNL1       -0.1967
     22 N          62.6052   84.0441   12.5926 N.pl3   1  UNL1       -0.2897
     23 C          62.6135   82.6295   12.0940 C.3     1  UNL1        0.1136
     24 C          62.5981   84.3197   14.0671 C.3     1  UNL1        0.1136
     25 O          63.2084   85.8185    7.7462 O.3     1  UNL1       -0.4602
     26 C          62.5707   84.4287    5.6457 C.3     1  UNL1        0.0512
     27 C          62.8378   84.5069    7.1197 C.3     1  UNL1        0.2072
     28 C          60.5709   89.5392   11.7695 C.3     1  UNL1        0.1161
     29 O          60.8746   89.9286   13.1859 O.3     1  UNL1       -0.3820
     30 H          61.7264   90.3915   13.2184 H       1  UNL1        0.2107
     31 C          60.2673   89.1498   10.3531 C.ar    1  UNL1        0.0117
     32 C          59.8963   87.7333   10.0278 C.ar    1  UNL1        0.0559
     33 C          59.5927   87.3439    8.6114 C.ar    1  UNL1        0.2272
     34 N          59.6599   88.3710    7.5203 N.ar    1  UNL1       -0.1767
     35 C          60.0309   89.7875    7.8457 C.ar    1  UNL1        0.2272
     36 C          60.3346   90.1769    9.2620 C.ar    1  UNL1        0.0559
     37 O          59.2217   85.9273    8.2862 O.3     1  UNL1       -0.4561
     38 C          59.8060   85.2576    7.0778 C.3     1  UNL1        0.2542
     39 O          60.0982   90.8147    6.7545 O.3     1  UNL1       -0.4561
     40 C          59.1819   90.7131    5.5713 C.3     1  UNL1        0.2542
     41 C          59.1473   89.9738   11.9552 C.3     1  UNL1        0.0491
     42 C          58.0522   88.9503   12.0129 C.3     1  UNL1        0.0750
     43 N          57.5446   88.4689   13.3397 N.3     1  UNL1       -0.2702
     44 C          56.1314   87.9838   13.4710 C.3     1  UNL1        0.0897
     45 C          58.4505   88.4726   14.5354 C.3     1  UNL1        0.0897
@<TRIPOS>BOND
     1    26    27    1
     2    27    25    1
     3    25    16    1
     4    16    17   ar
     5    17    18   ar
     6     1    18    1
     7     1     2    1
     8     2     3   ar
     9     3     4   ar
    10     4     5   ar
    11     5     6   ar
    12     6    12    1
    13    12    13    3
    14     6     7   ar
    15     7     8   ar
    16     8     9   ar
    17     9    10   ar
    18    10    11   ar
    19    11    14    1
    20    14    15    1
    21     1    28    1
    22    28    29    1
    23    28    41    1
    24    41    42    1
    25    42    43    1
    26    43    44    1
    27    43    45    1
    28    28    31    1
    29    31    32   ar
    30    32    33   ar
    31    33    37    1
    32    37    38    1
    33    33    34   ar
    34    34    35   ar
    35    35    39    1
    36    39    40    1
    37    35    36   ar
    38    18    19   ar
    39    19    20   ar
    40    20    22    1
    41    22    23    1
    42    22    24    1
    43    20    21   ar
    44    21    16   ar
    45    11     2   ar
    46    36    31   ar
    47     9     4   ar
    48    29    30    1
@<TRIPOS>MOLECULE
*****
 45 48 0 0 0
SMALL
GASTEIGER

@<TRIPOS>ATOM
      1 C          61.6409   93.6783   -1.7309 C.3     1  UNL1        0.0779
      2 C          60.2036   93.2492   -1.7485 C.ar    1  UNL1        0.0373
      3 C          59.5831   92.7583   -3.0229 C.ar    1  UNL1        0.0023
      4 C          58.1459   92.3292   -3.0406 C.ar    1  UNL1        0.0183
      5 C          57.5253   91.8383   -4.3149 C.ar    1  UNL1        0.0118
      6 C          56.0881   91.4092   -4.3325 C.ar    1  UNL1        0.0685
      7 C          55.2714   91.4711   -3.0759 C.ar    1  UNL1        0.0118
      8 C          55.8920   91.9620   -1.8015 C.ar    1  UNL1        0.0199
      9 C          57.3292   92.3910   -1.7838 C.ar    1  UNL1        0.0844
     10 N          57.9497   92.8819   -0.5095 N.ar    1  UNL1       -0.2119
     11 C          59.3870   93.3110   -0.4919 C.ar    1  UNL1        0.2211
     12 C          55.4675   90.9183   -5.6069 C.1     1  UNL1        0.1004
     13 N          54.8470   90.4274   -6.8812 N.1     1  UNL1       -0.1908
     14 O          60.0075   93.8019    0.7824 O.3     1  UNL1       -0.4563
     15 C          59.7928   95.2193    1.2238 C.3     1  UNL1        0.2542
     16 C          63.1331   92.4200    1.7245 C.ar    1  UNL1        0.2257
     17 C          62.3587   92.4449    0.4401 C.ar    1  UNL1        0.0539
     18 C          62.4153   93.6534   -0.4466 C.ar    1  UNL1       -0.0083
     19 C          63.2464   94.8371   -0.0489 C.ar    1  UNL1        0.0307
     20 C          64.0209   94.8122    1.2355 C.ar    1  UNL1        0.1346
     21 N          63.9642   93.6037    2.1222 N.ar    1  UNL1       -0.1967
     22 N          64.8520   95.9959    1.6331 N.pl3   1  UNL1       -0.2897
     23 C          65.0372   96.3288    3.0839 C.3     1  UNL1        0.1136
     24 C          65.4979   96.8466    0.5800 C.3     1  UNL1        0.1136
     25 O          63.0764   91.2115    2.6112 O.3     1  UNL1       -0.4602
     26 C          60.9673   91.7563    4.0272 C.3     1  UNL1        0.0512
     27 C          62.3905   91.2898    3.9429 C.3     1  UNL1        0.2072
     28 C          62.3036   94.1322   -2.9977 C.3     1  UNL1        0.1161
     29 O          63.4790   93.2494   -2.6991 O.3     1  UNL1       -0.3820
     30 H          63.1645   92.3898   -2.3780 H       1  UNL1        0.2107
     31 C          61.1283   95.0150   -3.2963 C.ar    1  UNL1        0.0117
     32 C          60.8346   95.4200   -4.7104 C.ar    1  UNL1        0.0559
     33 C          59.6592   96.3028   -5.0090 C.ar    1  UNL1        0.2272
     34 N          58.7775   96.7806   -3.8935 N.ar    1  UNL1       -0.1767
     35 C          59.0712   96.3755   -2.4794 C.ar    1  UNL1        0.2272
     36 C          60.2466   95.4927   -2.1808 C.ar    1  UNL1        0.0559
     37 O          59.3655   96.7079   -6.4231 O.3     1  UNL1       -0.4561
     38 C          57.9936   96.5007   -6.9931 C.3     1  UNL1        0.2542
     39 O          58.1894   96.8533   -1.3639 O.3     1  UNL1       -0.4561
     40 C          56.7890   96.3307   -1.2385 C.3     1  UNL1        0.2542
     41 C          62.9664   94.5861   -4.2645 C.3     1  UNL1        0.0491
     42 C          64.4630   94.6439   -4.3489 C.3     1  UNL1        0.0750
     43 N          65.1790   93.9401   -5.4633 N.3     1  UNL1       -0.2702
     44 C          65.2426   92.4417   -5.4855 C.3     1  UNL1        0.0897
     45 C          65.8315   94.7348   -6.5554 C.3     1  UNL1        0.0897
@<TRIPOS>BOND
     1    26    27    1
     2    27    25    1
     3    25    16    1
     4    16    17   ar
     5    17    18   ar
     6     1    18    1
     7     1     2    1
     8     2     3   ar
     9     3     4   ar
    10     4     5   ar
    11     5     6   ar
    12     6    12    1
    13    12    13    3
    14     6     7   ar
    15     7     8   ar
    16     8     9   ar
    17     9    10   ar
    18    10    11   ar
    19    11    14    1
    20    14    15    1
    21     1    28    1
    22    28    29    1
    23    28    41    1
    24    41    42    1
    25    42    43    1
    26    43    44    1
    27    43    45    1
    28    28    31    1
    29    31    32   ar
    30    32    33   ar
    31    33    37    1
    32    37    38    1
    33    33    34   ar
    34    34    35   ar
    35    35    39    1
    36    39    40    1
    37    35    36   ar
    38    18    19   ar
    39    19    20   ar
    40    20    22    1
    41    22    23    1
    42    22    24    1
    43    20    21   ar
    44    21    16   ar
    45    11     2   ar
    46    36    31   ar
    47     9     4   ar
    48    29    30    1
@<TRIPOS>MOLECULE
*****
 45 48 0 0 0
SMALL
GASTEIGER

@<TRIPOS>ATOM
      1 C          61.5151   93.6981   -1.5738 C.3     1  UNL1        0.0779
      2 C          60.0874   93.2430   -1.6414 C.ar    1  UNL1        0.0373
      3 C          59.5241   92.7301   -2.9335 C.ar    1  UNL1        0.0023
      4 C          58.0964   92.2750   -3.0011 C.ar    1  UNL1        0.0183
      5 C          57.5331   91.7620   -4.2932 C.ar    1  UNL1        0.0118
      6 C          56.1053   91.3069   -4.3607 C.ar    1  UNL1        0.0685
      7 C          55.2410   91.3648   -3.1362 C.ar    1  UNL1        0.0118
      8 C          55.8043   91.8777   -1.8441 C.ar    1  UNL1        0.0199
      9 C          57.2320   92.3328   -1.7765 C.ar    1  UNL1        0.0844
     10 N          57.7953   92.8457   -0.4844 N.ar    1  UNL1       -0.2119
     11 C          59.2230   93.3009   -0.4168 C.ar    1  UNL1        0.2211
     12 C          55.5420   90.7940   -5.6529 C.1     1  UNL1        0.1004
     13 N          54.9787   90.2811   -6.9450 N.1     1  UNL1       -0.1908
     14 O          59.7864   93.8138    0.8753 O.3     1  UNL1       -0.4563
     15 C          59.4418   93.1327    2.1665 C.3     1  UNL1        0.2542
     16 C          63.5213   95.2425    1.4823 C.ar    1  UNL1        0.2257
     17 C          62.8352   95.1200    0.1540 C.ar    1  UNL1        0.0539
     18 C          62.2012   93.8206   -0.2456 C.ar    1  UNL1       -0.0083
     19 C          62.2533   92.6438    0.6830 C.ar    1  UNL1        0.0307
     20 C          62.9394   92.7663    2.0113 C.ar    1  UNL1        0.1346
     21 N          63.5734   94.0657    2.4109 N.ar    1  UNL1       -0.1967
     22 N          62.9915   91.5895    2.9399 N.pl3   1  UNL1       -0.2897
     23 C          64.1486   90.6370    2.8793 C.3     1  UNL1        0.1136
     24 C          61.8864   91.3651    3.9290 C.3     1  UNL1        0.1136
     25 O          64.1553   96.5419    1.8819 O.3     1  UNL1       -0.4602
     26 C          65.0855   96.8525    4.2878 C.3     1  UNL1        0.0512
     27 C          65.3125   96.5495    2.8364 C.3     1  UNL1        0.2072
     28 C          62.2567   94.0307   -2.8346 C.3     1  UNL1        0.1161
     29 O          63.3886   93.1465   -2.4020 O.3     1  UNL1       -0.3820
     30 H          63.0327   92.3240   -2.0308 H       1  UNL1        0.2107
     31 C          61.1249   94.9149   -3.2671 C.ar    1  UNL1        0.0117
     32 C          60.9624   95.2709   -4.7151 C.ar    1  UNL1        0.0559
     33 C          59.8306   96.1552   -5.1477 C.ar    1  UNL1        0.2272
     34 N          58.8612   96.6833   -4.1322 N.ar    1  UNL1       -0.1767
     35 C          59.0236   96.3273   -2.6842 C.ar    1  UNL1        0.2272
     36 C          60.1555   95.4430   -2.2516 C.ar    1  UNL1        0.0559
     37 O          59.6682   96.5112   -6.5958 O.3     1  UNL1       -0.4561
     38 C          58.6865   95.7616   -7.4469 C.3     1  UNL1        0.2542
     39 O          58.0542   96.8554   -1.6686 O.3     1  UNL1       -0.4561
     40 C          56.7500   96.1507   -1.4392 C.3     1  UNL1        0.2542
     41 C          62.9983   94.3632   -4.0953 C.3     1  UNL1        0.0491
     42 C          64.4909   94.5104   -4.0708 C.3     1  UNL1        0.0750
     43 N          65.1088   95.8267   -3.7028 N.3     1  UNL1       -0.2702
     44 C          65.2942   96.1908   -2.2595 C.3     1  UNL1        0.0897
     45 C          65.5414   96.7790   -4.7781 C.3     1  UNL1        0.0897
@<TRIPOS>BOND
     1    26    27    1
     2    27    25    1
     3    25    16    1
     4    16    17   ar
     5    17    18   ar
     6     1    18    1
     7     1     2    1
     8     2     3   ar
     9     3     4   ar
    10     4     5   ar
    11     5     6   ar
    12     6    12    1
    13    12    13    3
    14     6     7   ar
    15     7     8   ar
    16     8     9   ar
    17     9    10   ar
    18    10    11   ar
    19    11    14    1
    20    14    15    1
    21     1    28    1
    22    28    29    1
    23    28    41    1
    24    41    42    1
    25    42    43    1
    26    43    44    1
    27    43    45    1
    28    28    31    1
    29    31    32   ar
    30    32    33   ar
    31    33    37    1
    32    37    38    1
    33    33    34   ar
    34    34    35   ar
    35    35    39    1
    36    39    40    1
    37    35    36   ar
    38    18    19   ar
    39    19    20   ar
    40    20    22    1
    41    22    23    1
    42    22    24    1
    43    20    21   ar
    44    21    16   ar
    45    11     2   ar
    46    36    31   ar
    47     9     4   ar
    48    29    30    1
@<TRIPOS>MOLECULE
*****
 45 48 0 0 0
SMALL
GASTEIGER

@<TRIPOS>ATOM
      1 C          62.2579   88.4312   10.7903 C.3     1  UNL1        0.0779
      2 C          62.7200   87.4488   11.8255 C.ar    1  UNL1        0.0373
      3 C          62.4182   85.9887   11.6615 C.ar    1  UNL1        0.0023
      4 C          62.8802   85.0064   12.6966 C.ar    1  UNL1        0.0183
      5 C          62.5784   83.5463   12.5326 C.ar    1  UNL1        0.0118
      6 C          63.0404   82.5640   13.5678 C.ar    1  UNL1        0.0685
      7 C          63.8043   83.0418   14.7671 C.ar    1  UNL1        0.0118
      8 C          64.1061   84.5020   14.9311 C.ar    1  UNL1        0.0199
      9 C          63.6441   85.4843   13.8959 C.ar    1  UNL1        0.0844
     10 N          63.9459   86.9444   14.0600 N.ar    1  UNL1       -0.2119
     11 C          63.4838   87.9267   13.0247 C.ar    1  UNL1        0.2211
     12 C          62.7386   81.1039   13.4038 C.1     1  UNL1        0.1004
     13 N          62.4368   79.6437   13.2397 N.1     1  UNL1       -0.1908
     14 O          63.7857   89.3868   13.1888 O.3     1  UNL1       -0.4563
     15 C          63.6141   90.0424   14.5270 C.3     1  UNL1        0.2542
     16 C          59.7873   88.2703    7.6887 C.ar    1  UNL1        0.2257
     17 C          60.4726   88.7568    8.9312 C.ar    1  UNL1        0.0539
     18 C          61.5727   87.9447    9.5478 C.ar    1  UNL1       -0.0083
     19 C          61.9875   86.6461    8.9221 C.ar    1  UNL1        0.0307
     20 C          61.3022   86.1596    7.6796 C.ar    1  UNL1        0.1346
     21 N          60.2021   86.9717    7.0629 N.ar    1  UNL1       -0.1967
     22 N          61.7170   84.8611    7.0538 N.pl3   1  UNL1       -0.2897
     23 C          62.9497   84.1559    7.5366 C.3     1  UNL1        0.1136
     24 C          60.8991   84.2676    5.9453 C.3     1  UNL1        0.1136
     25 O          58.6872   89.0824    7.0720 O.3     1  UNL1       -0.4602
     26 C          57.9149   90.9397    5.4276 C.3     1  UNL1        0.0512
     27 C          59.0021   90.0732    5.9907 C.3     1  UNL1        0.2072
     28 C          62.4812   89.8999   10.9976 C.3     1  UNL1        0.1161
     29 O          63.8939   89.7532   10.5152 O.3     1  UNL1       -0.3820
     30 H          63.9112   89.1761    9.7358 H       1  UNL1        0.2107
     31 C          61.0685   90.0466   11.4799 C.ar    1  UNL1        0.0117
     32 C          60.4302   88.9479   12.2771 C.ar    1  UNL1        0.0559
     33 C          59.0175   89.0945   12.7595 C.ar    1  UNL1        0.2272
     34 N          58.2430   90.3399   12.4446 N.ar    1  UNL1       -0.1767
     35 C          58.8812   91.4386   11.6475 C.ar    1  UNL1        0.2272
     36 C          60.2939   91.2919   11.1651 C.ar    1  UNL1        0.0559
     37 O          58.3793   87.9958   13.5567 O.3     1  UNL1       -0.4561
     38 C          56.8846   87.8882   13.6230 C.3     1  UNL1        0.2542
     39 O          58.1067   92.6840   11.3326 O.3     1  UNL1       -0.4561
     40 C          58.2044   93.8767   12.2370 C.3     1  UNL1        0.2542
     41 C          62.7044   91.3686   11.2048 C.3     1  UNL1        0.0491
     42 C          63.7748   92.0809   10.4321 C.3     1  UNL1        0.0750
     43 N          65.0654   92.4482   11.1026 N.3     1  UNL1       -0.2702
     44 C          65.1732   92.4030   12.5980 C.3     1  UNL1        0.0897
     45 C          66.2484   92.8606   10.2775 C.3     1  UNL1        0.0897
@<TRIPOS>BOND
     1    26    27    1
     2    27    25    1
     3    25    16    1
     4    16    17   ar
     5    17    18   ar
     6     1    18    1
     7     1     2    1
     8     2     3   ar
     9     3     4   ar
    10     4     5   ar
    11     5     6   ar
    12     6    12    1
    13    12    13    3
    14     6     7   ar
    15     7     8   ar
    16     8     9   ar
    17     9    10   ar
    18    10    11   ar
    19    11    14    1
    20    14    15    1
    21     1    28    1
    22    28    29    1
    23    28    41    1
    24    41    42    1
    25    42    43    1
    26    43    44    1
    27    43    45    1
    28    28    31    1
    29    31    32   ar
    30    32    33   ar
    31    33    37    1
    32    37    38    1
    33    33    34   ar
    34    34    35   ar
    35    35    39    1
    36    39    40    1
    37    35    36   ar
    38    18    19   ar
    39    19    20   ar
    40    20    22    1
    41    22    23    1
    42    22    24    1
    43    20    21   ar
    44    21    16   ar
    45    11     2   ar
    46    36    31   ar
    47     9     4   ar
    48    29    30    1
@<TRIPOS>MOLECULE
*****
 45 48 0 0 0
SMALL
GASTEIGER

@<TRIPOS>ATOM
      1 C          62.2637   88.4224   10.7966 C.3     1  UNL1        0.0779
      2 C          62.7223   87.4418   11.8350 C.ar    1  UNL1        0.0373
      3 C          62.4169   85.9820   11.6747 C.ar    1  UNL1        0.0023
      4 C          62.8755   85.0015   12.7130 C.ar    1  UNL1        0.0183
      5 C          62.5701   83.5417   12.5528 C.ar    1  UNL1        0.0118
      6 C          63.0287   82.5611   13.5912 C.ar    1  UNL1        0.0685
      7 C          63.7928   83.0403   14.7897 C.ar    1  UNL1        0.0118
      8 C          64.0982   84.5001   14.9499 C.ar    1  UNL1        0.0199
      9 C          63.6396   85.4807   13.9116 C.ar    1  UNL1        0.0844
     10 N          63.9450   86.9405   14.0719 N.ar    1  UNL1       -0.2119
     11 C          63.4863   87.9211   13.0335 C.ar    1  UNL1        0.2211
     12 C          62.7233   81.1013   13.4309 C.1     1  UNL1        0.1004
     13 N          62.4179   79.6414   13.2707 N.1     1  UNL1       -0.1908
     14 O          63.7918   89.3809   13.1938 O.3     1  UNL1       -0.4563
     15 C          63.6000   90.0456   14.5247 C.3     1  UNL1        0.2542
     16 C          59.8008   88.2570    7.6891 C.ar    1  UNL1        0.2257
     17 C          60.4831   88.7454    8.9324 C.ar    1  UNL1        0.0539
     18 C          61.5814   87.9340    9.5533 C.ar    1  UNL1       -0.0083
     19 C          61.9973   86.6342    8.9309 C.ar    1  UNL1        0.0307
     20 C          61.3150   86.1457    7.6875 C.ar    1  UNL1        0.1346
     21 N          60.2167   86.9571    7.0666 N.ar    1  UNL1       -0.1967
     22 N          61.7309   84.8459    7.0651 N.pl3   1  UNL1       -0.2897
     23 C          60.9297   84.2634    5.9388 C.3     1  UNL1        0.1136
     24 C          62.9480   84.1285    7.5691 C.3     1  UNL1        0.1136
     25 O          58.7026   89.0684    7.0682 O.3     1  UNL1       -0.4602
     26 C          57.9417   90.9424    5.4373 C.3     1  UNL1        0.0512
     27 C          59.0197   90.0524    5.9812 C.3     1  UNL1        0.2072
     28 C          62.4873   89.8914   11.0016 C.3     1  UNL1        0.1161
     29 O          63.8992   89.7441   10.5168 O.3     1  UNL1       -0.3820
     30 H          63.9150   89.1660    9.7381 H       1  UNL1        0.2107
     31 C          61.0755   90.0388   11.4864 C.ar    1  UNL1        0.0117
     32 C          60.2962   91.2784   11.1608 C.ar    1  UNL1        0.0559
     33 C          58.8844   91.4257   11.6456 C.ar    1  UNL1        0.2272
     34 N          58.2518   90.3334   12.4560 N.ar    1  UNL1       -0.1767
     35 C          59.0311   89.0938   12.7816 C.ar    1  UNL1        0.2272
     36 C          60.4430   88.9465   12.2968 C.ar    1  UNL1        0.0559
     37 O          58.1051   92.6654   11.3200 O.3     1  UNL1       -0.4561
     38 C          58.1809   93.8585   12.2259 C.3     1  UNL1        0.2542
     39 O          58.3986   88.0015   13.5920 O.3     1  UNL1       -0.4561
     40 C          56.9048   87.8762   13.6454 C.3     1  UNL1        0.2542
     41 C          62.7110   91.3604   11.2066 C.3     1  UNL1        0.0491
     42 C          63.7850   92.0702   10.4366 C.3     1  UNL1        0.0750
     43 N          65.0725   92.4396   11.1118 N.3     1  UNL1       -0.2702
     44 C          66.2609   92.8440   10.2908 C.3     1  UNL1        0.0897
     45 C          65.1715   92.4047   12.6082 C.3     1  UNL1        0.0897
@<TRIPOS>BOND
     1    26    27    1
     2    27    25    1
     3    25    16    1
     4    16    17   ar
     5    17    18   ar
     6     1    18    1
     7     1     2    1
     8     2     3   ar
     9     3     4   ar
    10     4     5   ar
    11     5     6   ar
    12     6    12    1
    13    12    13    3
    14     6     7   ar
    15     7     8   ar
    16     8     9   ar
    17     9    10   ar
    18    10    11   ar
    19    11    14    1
    20    14    15    1
    21     1    28    1
    22    28    29    1
    23    28    41    1
    24    41    42    1
    25    42    43    1
    26    43    44    1
    27    43    45    1
    28    28    31    1
    29    31    32   ar
    30    32    33   ar
    31    33    37    1
    32    37    38    1
    33    33    34   ar
    34    34    35   ar
    35    35    39    1
    36    39    40    1
    37    35    36   ar
    38    18    19   ar
    39    19    20   ar
    40    20    22    1
    41    22    23    1
    42    22    24    1
    43    20    21   ar
    44    21    16   ar
    45    11     2   ar
    46    36    31   ar
    47     9     4   ar
    48    29    30    1
@<TRIPOS>MOLECULE
*****
 45 48 0 0 0
SMALL
GASTEIGER

@<TRIPOS>ATOM
      1 C          61.9850   88.4136   10.4586 C.3     1  UNL1        0.0779
      2 C          62.4739   87.3334   11.3775 C.ar    1  UNL1        0.0373
      3 C          62.2623   85.8921   11.0201 C.ar    1  UNL1        0.0023
      4 C          62.7511   84.8119   11.9389 C.ar    1  UNL1        0.0183
      5 C          62.5395   83.3706   11.5816 C.ar    1  UNL1        0.0118
      6 C          63.0284   82.2904   12.5005 C.ar    1  UNL1        0.0685
      7 C          63.7289   82.6517   13.7767 C.ar    1  UNL1        0.0118
      8 C          63.9406   84.0930   14.1340 C.ar    1  UNL1        0.0199
      9 C          63.4517   85.1732   13.2152 C.ar    1  UNL1        0.0844
     10 N          63.6634   86.6145   13.5726 N.ar    1  UNL1       -0.2119
     11 C          63.1745   87.6946   12.6537 C.ar    1  UNL1        0.2211
     12 C          62.8167   80.8491   12.1431 C.1     1  UNL1        0.1004
     13 N          62.6051   79.4077   11.7858 N.1     1  UNL1       -0.1908
     14 O          63.3861   89.1360   13.0110 O.3     1  UNL1       -0.4563
     15 C          63.8378   89.5077   14.3922 C.3     1  UNL1        0.2542
     16 C          60.2694   86.2608    7.5999 C.ar    1  UNL1        0.2257
     17 C          61.0533   86.6185    8.8277 C.ar    1  UNL1        0.0539
     18 C          61.2011   88.0558    9.2308 C.ar    1  UNL1       -0.0083
     19 C          60.5651   89.1353    8.4061 C.ar    1  UNL1        0.0307
     20 C          59.7811   88.7775    7.1783 C.ar    1  UNL1        0.1346
     21 N          59.6333   87.3403    6.7752 N.ar    1  UNL1       -0.1967
     22 N          59.1451   89.8570    6.3536 N.pl3   1  UNL1       -0.2897
     23 C          60.0025   90.8024    5.5657 C.3     1  UNL1        0.1136
     24 C          57.6515   89.9910    6.3168 C.3     1  UNL1        0.1136
     25 O          60.1216   84.8235    7.1968 O.3     1  UNL1       -0.4602
     26 C          62.4839   84.5333    6.1550 C.3     1  UNL1        0.0512
     27 C          61.0117   84.2468    6.1360 C.3     1  UNL1        0.2072
     28 C          62.2800   89.8514   10.7675 C.3     1  UNL1        0.1161
     29 O          63.6646   89.6862   10.2147 O.3     1  UNL1       -0.3820
     30 H          63.6255   89.1714    9.3935 H       1  UNL1        0.2107
     31 C          60.8954   90.0167   11.3203 C.ar    1  UNL1        0.0117
     32 C          60.2679   88.9099   12.1147 C.ar    1  UNL1        0.0559
     33 C          58.8833   89.0751   12.6675 C.ar    1  UNL1        0.2272
     34 N          58.1262   90.3473   12.4260 N.ar    1  UNL1       -0.1767
     35 C          58.7537   91.4542   11.6316 C.ar    1  UNL1        0.2272
     36 C          60.1383   91.2889   11.0788 C.ar    1  UNL1        0.0559
     37 O          58.2558   87.9682   13.4618 O.3     1  UNL1       -0.4561
     38 C          56.7625   87.8736   13.5667 C.3     1  UNL1        0.2542
     39 O          57.9967   92.7264   11.3901 O.3     1  UNL1       -0.4561
     40 C          58.2438   93.9230   12.2603 C.3     1  UNL1        0.2542
     41 C          62.5750   91.2893   11.0765 C.3     1  UNL1        0.0491
     42 C          63.6966   91.9931   10.3716 C.3     1  UNL1        0.0750
     43 N          64.9516   92.3383   11.1171 N.3     1  UNL1       -0.2702
     44 C          65.0107   92.1665   12.6061 C.3     1  UNL1        0.0897
     45 C          66.1475   92.8553   10.3737 C.3     1  UNL1        0.0897
@<TRIPOS>BOND
     1    26    27    1
     2    27    25    1
     3    25    16    1
     4    16    17   ar
     5    17    18   ar
     6     1    18    1
     7     1     2    1
     8     2     3   ar
     9     3     4   ar
    10     4     5   ar
    11     5     6   ar
    12     6    12    1
    13    12    13    3
    14     6     7   ar
    15     7     8   ar
    16     8     9   ar
    17     9    10   ar
    18    10    11   ar
    19    11    14    1
    20    14    15    1
    21     1    28    1
    22    28    29    1
    23    28    41    1
    24    41    42    1
    25    42    43    1
    26    43    44    1
    27    43    45    1
    28    28    31    1
    29    31    32   ar
    30    32    33   ar
    31    33    37    1
    32    37    38    1
    33    33    34   ar
    34    34    35   ar
    35    35    39    1
    36    39    40    1
    37    35    36   ar
    38    18    19   ar
    39    19    20   ar
    40    20    22    1
    41    22    23    1
    42    22    24    1
    43    20    21   ar
    44    21    16   ar
    45    11     2   ar
    46    36    31   ar
    47     9     4   ar
    48    29    30    1
@<TRIPOS>MOLECULE
*****
 45 48 0 0 0
SMALL
GASTEIGER

@<TRIPOS>ATOM
      1 C          62.7243   89.2519   12.8224 C.3     1  UNL1        0.0779
      2 C          63.1190   87.8550   13.2005 C.ar    1  UNL1        0.0373
      3 C          62.9250   86.7311   12.2262 C.ar    1  UNL1        0.0023
      4 C          63.3197   85.3343   12.6043 C.ar    1  UNL1        0.0183
      5 C          63.1257   84.2104   11.6300 C.ar    1  UNL1        0.0118
      6 C          63.5204   82.8135   12.0082 C.ar    1  UNL1        0.0685
      7 C          64.1091   82.5405   13.3605 C.ar    1  UNL1        0.0118
      8 C          64.3031   83.6644   14.3348 C.ar    1  UNL1        0.0199
      9 C          63.9084   85.0613   13.9567 C.ar    1  UNL1        0.0844
     10 N          64.1024   86.1852   14.9310 N.ar    1  UNL1       -0.2119
     11 C          63.7077   87.5821   14.5529 C.ar    1  UNL1        0.2211
     12 C          63.3265   81.6896   11.0339 C.1     1  UNL1        0.1004
     13 N          63.1325   80.5657   10.0596 N.1     1  UNL1       -0.1908
     14 O          63.9017   88.7060   15.5272 O.3     1  UNL1       -0.4563
     15 C          63.1127   88.7376   16.8025 C.3     1  UNL1        0.2542
     16 C          64.9501   92.0645   11.1238 C.ar    1  UNL1        0.2257
     17 C          63.8972   91.0134   11.3153 C.ar    1  UNL1        0.0539
     18 C          63.7772   90.3030   12.6309 C.ar    1  UNL1       -0.0083
     19 C          64.7101   90.6436   13.7550 C.ar    1  UNL1        0.0307
     20 C          65.7630   91.6946   13.5636 C.ar    1  UNL1        0.1346
     21 N          65.8830   92.4051   12.2480 N.ar    1  UNL1       -0.1967
     22 N          66.6959   92.0352   14.6878 N.pl3   1  UNL1       -0.2897
     23 C          68.1792   92.0038   14.4671 C.3     1  UNL1        0.1136
     24 C          66.1454   92.4073   16.0326 C.3     1  UNL1        0.1136
     25 O          65.0701   92.7749    9.8082 O.3     1  UNL1       -0.4602
     26 C          67.4742   93.6063    9.2794 C.3     1  UNL1        0.0512
     27 C          66.0504   93.8992    9.6497 C.3     1  UNL1        0.2072
     28 C          61.2767   89.5977   12.6357 C.3     1  UNL1        0.1161
     29 O          61.2068   90.0723   14.0569 O.3     1  UNL1       -0.3820
     30 H          61.9990   90.5926   14.2634 H       1  UNL1        0.2107
     31 C          61.3466   89.1231   11.2145 C.ar    1  UNL1        0.0117
     32 C          60.5820   89.8444   10.1445 C.ar    1  UNL1        0.0559
     33 C          60.6519   89.3698    8.7232 C.ar    1  UNL1        0.2272
     34 N          61.4863   88.1739    8.3721 N.ar    1  UNL1       -0.1767
     35 C          62.2509   87.4526    9.4421 C.ar    1  UNL1        0.2272
     36 C          62.1810   87.9272   10.8633 C.ar    1  UNL1        0.0559
     37 O          59.8873   90.0912    7.6532 O.3     1  UNL1       -0.4561
     38 C          59.2896   89.3236    6.5114 C.3     1  UNL1        0.2542
     39 O          63.0854   86.2566    9.0910 O.3     1  UNL1       -0.4561
     40 C          62.5969   85.2758    8.0666 C.3     1  UNL1        0.2542
     41 C          59.8291   89.9435   12.4491 C.3     1  UNL1        0.0491
     42 C          58.8046   88.8526   12.3463 C.3     1  UNL1        0.0750
     43 N          57.9936   88.4697   13.5487 N.3     1  UNL1       -0.2702
     44 C          56.5459   88.1093   13.3931 C.3     1  UNL1        0.0897
     45 C          58.6303   88.4474   14.9067 C.3     1  UNL1        0.0897
@<TRIPOS>BOND
     1    26    27    1
     2    27    25    1
     3    25    16    1
     4    16    17   ar
     5    17    18   ar
     6     1    18    1
     7     1     2    1
     8     2     3   ar
     9     3     4   ar
    10     4     5   ar
    11     5     6   ar
    12     6    12    1
    13    12    13    3
    14     6     7   ar
    15     7     8   ar
    16     8     9   ar
    17     9    10   ar
    18    10    11   ar
    19    11    14    1
    20    14    15    1
    21     1    28    1
    22    28    29    1
    23    28    41    1
    24    41    42    1
    25    42    43    1
    26    43    44    1
    27    43    45    1
    28    28    31    1
    29    31    32   ar
    30    32    33   ar
    31    33    37    1
    32    37    38    1
    33    33    34   ar
    34    34    35   ar
    35    35    39    1
    36    39    40    1
    37    35    36   ar
    38    18    19   ar
    39    19    20   ar
    40    20    22    1
    41    22    23    1
    42    22    24    1
    43    20    21   ar
    44    21    16   ar
    45    11     2   ar
    46    36    31   ar
    47     9     4   ar
    48    29    30    1
@<TRIPOS>MOLECULE
*****
 45 48 0 0 0
SMALL
GASTEIGER

@<TRIPOS>ATOM
      1 C          61.9845   88.4079   10.4493 C.3     1  UNL1        0.0779
      2 C          62.4741   87.3253   11.3649 C.ar    1  UNL1        0.0373
      3 C          62.2621   85.8849   11.0038 C.ar    1  UNL1        0.0023
      4 C          62.7517   84.8023   11.9193 C.ar    1  UNL1        0.0183
      5 C          62.5396   83.3619   11.5583 C.ar    1  UNL1        0.0118
      6 C          63.0292   82.2793   12.4739 C.ar    1  UNL1        0.0685
      7 C          63.7309   82.6370   13.7504 C.ar    1  UNL1        0.0118
      8 C          63.9429   84.0774   14.1115 C.ar    1  UNL1        0.0199
      9 C          63.4534   85.1600   13.1960 C.ar    1  UNL1        0.0844
     10 N          63.6654   86.6004   13.5570 N.ar    1  UNL1       -0.2119
     11 C          63.1758   87.6830   12.6414 C.ar    1  UNL1        0.2211
     12 C          62.8172   80.8389   12.1128 C.1     1  UNL1        0.1004
     13 N          62.6051   79.3985   11.7518 N.1     1  UNL1       -0.1908
     14 O          63.3878   89.1234   13.0025 O.3     1  UNL1       -0.4563
     15 C          63.9596   89.4847   14.3413 C.3     1  UNL1        0.2542
     16 C          60.2649   86.2636    7.5866 C.ar    1  UNL1        0.2257
     17 C          61.0522   86.6179    8.8132 C.ar    1  UNL1        0.0539
     18 C          61.1972   88.0536    9.2227 C.ar    1  UNL1       -0.0083
     19 C          60.5550   89.1351    8.4055 C.ar    1  UNL1        0.0307
     20 C          59.7676   88.7809    7.1788 C.ar    1  UNL1        0.1346
     21 N          59.6226   87.3452    6.7694 N.ar    1  UNL1       -0.1967
     22 N          59.1254   89.8624    6.3616 N.pl3   1  UNL1       -0.2897
     23 C          57.6313   89.9920    6.3309 C.3     1  UNL1        0.1136
     24 C          59.9771   90.8142    5.5751 C.3     1  UNL1        0.1136
     25 O          60.1199   84.8279    7.1772 O.3     1  UNL1       -0.4602
     26 C          62.4985   84.5090    6.1820 C.3     1  UNL1        0.0512
     27 C          61.0216   84.2533    6.1251 C.3     1  UNL1        0.2072
     28 C          62.2822   89.8448   10.7604 C.3     1  UNL1        0.1161
     29 O          63.6677   89.6767   10.2106 O.3     1  UNL1       -0.3820
     30 H          63.6293   89.1629    9.3887 H       1  UNL1        0.2107
     31 C          60.8968   90.0128   11.3102 C.ar    1  UNL1        0.0117
     32 C          60.1465   91.2902   11.0754 C.ar    1  UNL1        0.0559
     33 C          58.7611   91.4583   11.6252 C.ar    1  UNL1        0.2272
     34 N          58.1259   90.3488   12.4098 N.ar    1  UNL1       -0.1767
     35 C          58.8761   89.0714   12.6446 C.ar    1  UNL1        0.2272
     36 C          60.2616   88.9033   12.0948 C.ar    1  UNL1        0.0559
     37 O          58.0108   92.7358   11.3905 O.3     1  UNL1       -0.4561
     38 C          58.2681   93.9280   12.2637 C.3     1  UNL1        0.2542
     39 O          58.2409   87.9618   13.4292 O.3     1  UNL1       -0.4561
     40 C          56.7480   87.8926   13.5565 C.3     1  UNL1        0.2542
     41 C          62.5799   91.2816   11.0715 C.3     1  UNL1        0.0491
     42 C          63.6951   91.9878   10.3589 C.3     1  UNL1        0.0750
     43 N          64.9240   92.4013   11.1131 N.3     1  UNL1       -0.2702
     44 C          66.0712   93.0383   10.3863 C.3     1  UNL1        0.0897
     45 C          65.0058   92.1777   12.5941 C.3     1  UNL1        0.0897
@<TRIPOS>BOND
     1    26    27    1
     2    27    25    1
     3    25    16    1
     4    16    17   ar
     5    17    18   ar
     6     1    18    1
     7     1     2    1
     8     2     3   ar
     9     3     4   ar
    10     4     5   ar
    11     5     6   ar
    12     6    12    1
    13    12    13    3
    14     6     7   ar
    15     7     8   ar
    16     8     9   ar
    17     9    10   ar
    18    10    11   ar
    19    11    14    1
    20    14    15    1
    21     1    28    1
    22    28    29    1
    23    28    41    1
    24    41    42    1
    25    42    43    1
    26    43    44    1
    27    43    45    1
    28    28    31    1
    29    31    32   ar
    30    32    33   ar
    31    33    37    1
    32    37    38    1
    33    33    34   ar
    34    34    35   ar
    35    35    39    1
    36    39    40    1
    37    35    36   ar
    38    18    19   ar
    39    19    20   ar
    40    20    22    1
    41    22    23    1
    42    22    24    1
    43    20    21   ar
    44    21    16   ar
    45    11     2   ar
    46    36    31   ar
    47     9     4   ar
    48    29    30    1
