@<TRIPOS>MOLECULE
*****
 38 42 0 0 0
SMALL
GASTEIGER

@<TRIPOS>ATOM
      1 C          64.3908   88.0723   15.0859 C.3     1  UNL1        0.0474
      2 C          64.7068   89.3494   14.3655 C.3     1  UNL1        0.1702
      3 O          65.6541   90.4143   14.8330 O.3     1  UNL1       -0.4519
      4 C          65.6638   91.5089   13.8074 C.2     1  UNL1        0.3247
      5 O          66.5880   92.6273   14.1880 O.2     1  UNL1       -0.2496
      6 C          64.7225   91.1205   12.7060 C.3     1  UNL1        0.1681
      7 C          64.3274   91.8097   11.4336 C.3     1  UNL1        0.0862
      8 C          63.3410   91.1642   10.5062 C.3     1  UNL1        0.2651
      9 F          62.4528   90.9573    9.3152 F       1  UNL1       -0.2043
     10 F          63.6239   92.4270    9.7476 F       1  UNL1       -0.2043
     11 C          62.7496   89.8296   10.8510 C.3     1  UNL1        0.0655
     12 C          61.7631   89.1841    9.9235 C.3     1  UNL1        0.0060
     13 C          63.1446   89.1404   12.1235 C.3     1  UNL1        0.0318
     14 C          64.1311   89.7859   13.0509 C.3     1  UNL1        0.0631
     15 C          65.3940   92.4452   12.4958 C.ar    1  UNL1        0.2373
     16 N          65.4594   93.5679   13.4883 N.ar    1  UNL1       -0.1097
     17 N          66.2239   94.6964   12.8620 N.ar    1  UNL1       -0.0928
     18 C          66.6311   94.2710   11.4825 C.ar    1  UNL1        0.3052
     19 N          67.4137   95.0926   10.5015 N.pl3   1  UNL1       -0.3115
     20 O          66.1182   92.8796   11.2561 O.2     1  UNL1       -0.4084
     21 H          67.7077   96.0005   10.7437 H       1  UNL1        0.1467
     22 H          67.6334   94.7241    9.6154 H       1  UNL1        0.1467
     23 C          62.5531   87.8057   12.4683 C.2     1  UNL1       -0.0246
     24 C          63.4181   86.5803   12.4716 C.2     1  UNL1        0.0145
     25 C          62.8266   85.2457   12.8165 C.ar    1  UNL1        0.0810
     26 C          62.6570   84.2028   11.7518 C.ar    1  UNL1        0.0191
     27 C          62.0654   82.8682   12.0965 C.ar    1  UNL1        0.0031
     28 C          61.6434   82.5764   13.5061 C.ar    1  UNL1        0.0198
     29 C          61.8130   83.6194   14.5709 C.ar    1  UNL1        0.0988
     30 N          62.4046   84.9540   14.2260 N.ar    1  UNL1       -0.2438
     31 C          61.0519   81.2418   13.8509 C.ar    1  UNL1        0.0111
     32 C          59.5627   81.0785   13.9259 C.ar    1  UNL1        0.0007
     33 C          58.9712   79.7439   14.2708 C.ar    1  UNL1        0.0000
     34 C          59.8688   78.5727   14.5406 C.ar    1  UNL1        0.0007
     35 C          61.3579   78.7361   14.4656 C.ar    1  UNL1        0.0103
     36 C          61.9495   80.0707   14.1207 C.ar    1  UNL1        0.0685
     37 C          63.4386   80.2342   14.0457 C.1     1  UNL1        0.1004
     38 N          64.9278   80.3977   13.9706 N.1     1  UNL1       -0.1908
@<TRIPOS>BOND
     1     2     1    1
     2     2     3    1
     3     3     4    1
     4     4     5    2
     5     4     6    1
     6     6    15    1
     7    15    16   ar
     8    16    17   ar
     9    17    18   ar
    10    18    19    1
    11    18    20   ar
    12     6     7    1
    13     7     8    1
    14     8     9    1
    15     8    10    1
    16     8    11    1
    17    11    12    1
    18    11    13    1
    19    13    23    1
    20    23    24    2
    21    24    25    1
    22    25    26   ar
    23    26    27   ar
    24    27    28   ar
    25    28    31    1
    26    31    32   ar
    27    32    33   ar
    28    33    34   ar
    29    34    35   ar
    30    35    36   ar
    31    36    37    1
    32    37    38    3
    33    28    29   ar
    34    29    30   ar
    35    13    14    1
    36    14     2    1
    37    14     6    1
    38    20    15   ar
    39    30    25   ar
    40    36    31   ar
    41    19    21    1
    42    19    22    1
@<TRIPOS>MOLECULE
*****
 38 42 0 0 0
SMALL
GASTEIGER

@<TRIPOS>ATOM
      1 C          63.0941   89.9121   10.0808 C.3     1  UNL1        0.0474
      2 C          63.8320   91.1464   10.5072 C.3     1  UNL1        0.1702
      3 O          64.0626   92.3693    9.6696 O.3     1  UNL1       -0.4519
      4 C          64.8421   93.3533   10.4907 C.2     1  UNL1        0.3247
      5 O          65.1240   94.6176    9.7344 O.2     1  UNL1       -0.2496
      6 C          65.0932   92.7386   11.8358 C.3     1  UNL1        0.1681
      7 C          65.8097   93.2446   13.0526 C.3     1  UNL1        0.0862
      8 C          65.9019   92.3866   14.2795 C.3     1  UNL1        0.2651
      9 F          66.2533   91.9497   15.6708 F       1  UNL1       -0.2043
     10 F          66.6482   93.5988   14.7526 F       1  UNL1       -0.2043
     11 C          65.2777   91.0228   14.2897 C.3     1  UNL1        0.0655
     12 C          65.3699   90.1649   15.5167 C.3     1  UNL1        0.0060
     13 C          64.5612   90.5168   13.0728 C.3     1  UNL1        0.0318
     14 C          64.4690   91.3747   11.8459 C.3     1  UNL1        0.0631
     15 C          65.6652   94.1163   11.6782 C.ar    1  UNL1        0.2373
     16 N          65.3844   95.2941   12.5635 N.ar    1  UNL1       -0.1097
     17 N          66.1641   96.4638   12.0400 N.ar    1  UNL1       -0.0928
     18 C          66.9268   96.0088   10.8312 C.ar    1  UNL1        0.3052
     19 N          67.8379   96.8559    9.9932 N.pl3   1  UNL1       -0.3115
     20 O          66.6185   94.5579   10.6076 O.2     1  UNL1       -0.4084
     21 H          67.9773   97.8034   10.2214 H       1  UNL1        0.1467
     22 H          68.2965   96.4644    9.2150 H       1  UNL1        0.1467
     23 C          63.9370   89.1528   13.0831 C.2     1  UNL1       -0.0246
     24 C          64.7232   87.9718   13.5697 C.2     1  UNL1        0.0145
     25 C          64.0990   86.6079   13.5799 C.ar    1  UNL1        0.0810
     26 C          64.4566   85.6274   14.6572 C.ar    1  UNL1        0.0191
     27 C          63.8323   84.2635   14.6675 C.ar    1  UNL1        0.0031
     28 C          62.8504   83.8801   13.6004 C.ar    1  UNL1        0.0198
     29 C          62.4927   84.8607   12.5229 C.ar    1  UNL1        0.0988
     30 N          63.1170   86.2245   12.5128 N.ar    1  UNL1       -0.2438
     31 C          62.2261   82.5162   13.6105 C.ar    1  UNL1        0.0111
     32 C          61.1989   82.1694   14.6471 C.ar    1  UNL1        0.0007
     33 C          60.5746   80.8055   14.6573 C.ar    1  UNL1        0.0000
     34 C          60.9776   79.7885   13.6309 C.ar    1  UNL1        0.0007
     35 C          62.0048   80.1354   12.5944 C.ar    1  UNL1        0.0103
     36 C          62.6291   81.4992   12.5842 C.ar    1  UNL1        0.0685
     37 C          63.6563   81.8462   11.5477 C.1     1  UNL1        0.1004
     38 N          64.6835   82.1931   10.5111 N.1     1  UNL1       -0.1908
@<TRIPOS>BOND
     1     2     1    1
     2     2     3    1
     3     3     4    1
     4     4     5    2
     5     4     6    1
     6     6    15    1
     7    15    16   ar
     8    16    17   ar
     9    17    18   ar
    10    18    19    1
    11    18    20   ar
    12     6     7    1
    13     7     8    1
    14     8     9    1
    15     8    10    1
    16     8    11    1
    17    11    12    1
    18    11    13    1
    19    13    23    1
    20    23    24    2
    21    24    25    1
    22    25    26   ar
    23    26    27   ar
    24    27    28   ar
    25    28    31    1
    26    31    32   ar
    27    32    33   ar
    28    33    34   ar
    29    34    35   ar
    30    35    36   ar
    31    36    37    1
    32    37    38    3
    33    28    29   ar
    34    29    30   ar
    35    13    14    1
    36    14     2    1
    37    14     6    1
    38    20    15   ar
    39    30    25   ar
    40    36    31   ar
    41    19    21    1
    42    19    22    1
@<TRIPOS>MOLECULE
*****
 38 42 0 0 0
SMALL
GASTEIGER

@<TRIPOS>ATOM
      1 C          62.7511   91.3617    9.6798 C.3     1  UNL1        0.0474
      2 C          62.6439   89.9953   10.2893 C.3     1  UNL1        0.1702
      3 O          63.2977   89.5436   11.5615 O.3     1  UNL1       -0.4519
      4 C          62.9219   88.1098   11.7921 C.2     1  UNL1        0.3247
      5 O          63.5319   87.5643   13.0492 O.2     1  UNL1       -0.2496
      6 C          62.0358   87.6754   10.6625 C.3     1  UNL1        0.1681
      7 C          61.3632   86.3694   10.3596 C.3     1  UNL1        0.0862
      8 C          60.5187   86.2286    9.1279 C.3     1  UNL1        0.2651
      9 F          59.6262   85.6083    8.0941 F       1  UNL1       -0.2043
     10 F          60.3806   84.8479    9.6976 F       1  UNL1       -0.2043
     11 C          60.3468   87.3939    8.1992 C.3     1  UNL1        0.0655
     12 C          59.5023   87.2531    6.9674 C.3     1  UNL1        0.0060
     13 C          61.0195   88.7000    8.5021 C.3     1  UNL1        0.0318
     14 C          61.8639   88.8407    9.7337 C.3     1  UNL1        0.0631
     15 C          62.2983   86.6039   11.6787 C.ar    1  UNL1        0.2373
     16 N          61.4092   86.2463   12.8327 N.ar    1  UNL1       -0.1097
     17 N          62.0574   85.1232   13.5867 N.ar    1  UNL1       -0.0928
     18 C          63.3471   84.7865   12.8986 C.ar    1  UNL1        0.3052
     19 N          64.3175   83.7218   13.3164 N.pl3   1  UNL1       -0.3115
     20 O          63.4959   85.7017   11.7195 O.2     1  UNL1       -0.4084
     21 H          64.1306   83.1691   14.1094 H       1  UNL1        0.1467
     22 H          65.1413   83.5756   12.7975 H       1  UNL1        0.1467
     23 C          60.8476   89.8653    7.5733 C.2     1  UNL1       -0.0246
     24 C          60.6612   89.6316    6.1034 C.2     1  UNL1        0.0145
     25 C          60.4893   90.7969    5.1746 C.ar    1  UNL1        0.0810
     26 C          59.1766   91.5202    5.1138 C.ar    1  UNL1        0.0191
     27 C          59.0046   92.6856    4.1851 C.ar    1  UNL1        0.0031
     28 C          60.1454   93.1276    3.3172 C.ar    1  UNL1        0.0198
     29 C          61.4582   92.4042    3.3780 C.ar    1  UNL1        0.0988
     30 N          61.6301   91.2389    4.3068 N.ar    1  UNL1       -0.2438
     31 C          59.9735   94.2929    2.3885 C.ar    1  UNL1        0.0111
     32 C          59.9408   95.6892    2.9354 C.ar    1  UNL1        0.0007
     33 C          59.7689   96.8545    2.0067 C.ar    1  UNL1        0.0000
     34 C          59.6297   96.6234    0.5311 C.ar    1  UNL1        0.0007
     35 C          59.6624   95.2271   -0.0158 C.ar    1  UNL1        0.0103
     36 C          59.8343   94.0618    0.9130 C.ar    1  UNL1        0.0685
     37 C          59.8671   92.6654    0.3661 C.1     1  UNL1        0.1004
     38 N          59.8998   91.2690   -0.1807 N.1     1  UNL1       -0.1908
@<TRIPOS>BOND
     1     2     1    1
     2     2     3    1
     3     3     4    1
     4     4     5    2
     5     4     6    1
     6     6    15    1
     7    15    16   ar
     8    16    17   ar
     9    17    18   ar
    10    18    19    1
    11    18    20   ar
    12     6     7    1
    13     7     8    1
    14     8     9    1
    15     8    10    1
    16     8    11    1
    17    11    12    1
    18    11    13    1
    19    13    23    1
    20    23    24    2
    21    24    25    1
    22    25    26   ar
    23    26    27   ar
    24    27    28   ar
    25    28    31    1
    26    31    32   ar
    27    32    33   ar
    28    33    34   ar
    29    34    35   ar
    30    35    36   ar
    31    36    37    1
    32    37    38    3
    33    28    29   ar
    34    29    30   ar
    35    13    14    1
    36    14     2    1
    37    14     6    1
    38    20    15   ar
    39    30    25   ar
    40    36    31   ar
    41    19    21    1
    42    19    22    1
@<TRIPOS>MOLECULE
*****
 38 42 0 0 0
SMALL
GASTEIGER

@<TRIPOS>ATOM
      1 C          63.6586   92.2807    9.5609 C.3     1  UNL1        0.0474
      2 C          63.5228   91.2459   10.6383 C.3     1  UNL1        0.1702
      3 O          64.1997   91.2725   11.9767 O.3     1  UNL1       -0.4519
      4 C          63.7815   90.0459   12.7321 C.2     1  UNL1        0.3247
      5 O          64.4108   89.9819   14.0922 O.2     1  UNL1       -0.2496
      6 C          62.8462   89.2612   11.8606 C.3     1  UNL1        0.1681
      7 C          62.1194   87.9672   12.0781 C.3     1  UNL1        0.0862
      8 C          61.2327   87.4149   11.0017 C.3     1  UNL1        0.2651
      9 F          60.2876   86.4939   10.2886 F       1  UNL1       -0.2043
     10 F          61.0644   86.3534   12.0480 F       1  UNL1       -0.2043
     11 C          61.0729   88.1565    9.7078 C.3     1  UNL1        0.0655
     12 C          60.1861   87.6042    8.6313 C.3     1  UNL1        0.0060
     13 C          61.7996   89.4506    9.4902 C.3     1  UNL1        0.0318
     14 C          62.6863   90.0029   10.5666 C.3     1  UNL1        0.0631
     15 C          63.1026   88.6351   13.1993 C.ar    1  UNL1        0.2373
     16 N          63.7903   87.3244   13.4425 N.ar    1  UNL1       -0.1097
     17 N          63.8290   87.0889   14.9234 N.ar    1  UNL1       -0.0928
     18 C          63.1652   88.2541   15.5955 C.ar    1  UNL1        0.3052
     19 N          62.9824   88.4324   17.0736 N.pl3   1  UNL1       -0.3115
     20 O          62.7162   89.2097   14.5299 O.2     1  UNL1       -0.4084
     21 H          63.3134   87.7459   17.6969 H       1  UNL1        0.1467
     22 H          62.5315   89.2359   17.4204 H       1  UNL1        0.1467
     23 C          61.6397   90.1922    8.1961 C.2     1  UNL1       -0.0246
     24 C          60.4970   89.8659    7.2810 C.2     1  UNL1        0.0145
     25 C          60.3371   90.6076    5.9870 C.ar    1  UNL1        0.0810
     26 C          58.9952   91.1513    5.5950 C.ar    1  UNL1        0.0191
     27 C          58.8353   91.8930    4.3010 C.ar    1  UNL1        0.0031
     28 C          60.0173   92.0910    3.3990 C.ar    1  UNL1        0.0198
     29 C          61.3593   91.5472    3.7910 C.ar    1  UNL1        0.0988
     30 N          61.5191   90.8056    5.0850 N.ar    1  UNL1       -0.2438
     31 C          59.8574   92.8326    2.1050 C.ar    1  UNL1        0.0111
     32 C          58.5180   92.8864    1.4320 C.ar    1  UNL1        0.0007
     33 C          58.3581   93.6281    0.1380 C.ar    1  UNL1        0.0000
     34 C          59.5377   94.3159   -0.4828 C.ar    1  UNL1        0.0007
     35 C          60.8771   94.2621    0.1902 C.ar    1  UNL1        0.0103
     36 C          61.0370   93.5205    1.4841 C.ar    1  UNL1        0.0685
     37 C          62.3764   93.4666    2.1572 C.1     1  UNL1        0.1004
     38 N          63.7158   93.4128    2.8303 N.1     1  UNL1       -0.1908
@<TRIPOS>BOND
     1     2     1    1
     2     2     3    1
     3     3     4    1
     4     4     5    2
     5     4     6    1
     6     6    15    1
     7    15    16   ar
     8    16    17   ar
     9    17    18   ar
    10    18    19    1
    11    18    20   ar
    12     6     7    1
    13     7     8    1
    14     8     9    1
    15     8    10    1
    16     8    11    1
    17    11    12    1
    18    11    13    1
    19    13    23    1
    20    23    24    2
    21    24    25    1
    22    25    26   ar
    23    26    27   ar
    24    27    28   ar
    25    28    31    1
    26    31    32   ar
    27    32    33   ar
    28    33    34   ar
    29    34    35   ar
    30    35    36   ar
    31    36    37    1
    32    37    38    3
    33    28    29   ar
    34    29    30   ar
    35    13    14    1
    36    14     2    1
    37    14     6    1
    38    20    15   ar
    39    30    25   ar
    40    36    31   ar
    41    19    21    1
    42    19    22    1
