@<TRIPOS>MOLECULE
*****
 41 46 0 0 0
SMALL
GASTEIGER

@<TRIPOS>ATOM
      1 C          61.2072   88.7900    9.0809 C.3     1  UNL1        0.1351
      2 N          62.0124   88.8588   10.3446 N.ar    1  UNL1       -0.2770
      3 C          62.4266   90.1898   10.8984 C.ar    1  UNL1        0.3342
      4 O          62.0356   91.4520   10.1885 O.2     1  UNL1       -0.2462
      5 N          63.2318   90.2586   12.1621 N.ar    1  UNL1       -0.2417
      6 C          63.6228   88.9964   12.8720 C.ar    1  UNL1        0.2819
      7 O          64.4280   89.0652   14.1356 O.2     1  UNL1       -0.2652
      8 C          63.2085   87.6653   12.3181 C.ar    1  UNL1        0.1349
      9 C          62.4033   87.5965   11.0545 C.ar    1  UNL1        0.0966
     10 C          62.1417   86.1513   10.7497 C.ar    1  UNL1        0.1156
     11 C          62.7852   85.3270   11.8250 C.ar    1  UNL1        0.1240
     12 N          63.4445   86.2627   12.7944 N.ar    1  UNL1       -0.3063
     13 N          62.7718   83.8297   11.9151 N.pl3   1  UNL1       -0.2926
     14 C          63.2135   83.0038   10.7435 C.3     1  UNL1        0.0922
     15 C          63.2001   81.5066   10.8337 C.3     1  UNL1        0.0229
     16 C          62.7449   80.8353   12.0954 C.3     1  UNL1        0.0190
     17 C          62.3031   81.6612   13.2670 C.3     1  UNL1        0.0709
     18 N          61.8479   80.9898   14.5288 N.3     1  UNL1       -0.3208
     19 C          62.3165   83.1584   13.1769 C.3     1  UNL1        0.1075
     20 H          61.9032   79.9778   14.4145 H       1  UNL1        0.1189
     21 H          60.8838   81.2573   14.7275 H       1  UNL1        0.1189
     22 C          61.3717   85.6233    9.5757 C.1     1  UNL1        0.1047
     23 N          60.6018   85.0952    8.4015 N.1     1  UNL1       -0.1907
     24 C          63.6461   91.5897   12.7159 C.3     1  UNL1        0.1593
     25 C          65.0632   92.0572   12.5636 C.ar    1  UNL1        0.0821
     26 N          65.6435   92.2585   11.1952 N.ar    1  UNL1       -0.2462
     27 C          67.0606   92.7261   11.0428 C.ar    1  UNL1        0.0985
     28 C          67.8974   92.9924   12.2589 C.ar    1  UNL1        0.0207
     29 C          67.3170   92.7911   13.6274 C.ar    1  UNL1        0.0027
     30 C          68.1538   93.0573   14.8435 C.ar    1  UNL1        0.0001
     31 C          67.5734   92.8560   16.2119 C.ar    1  UNL1        0.0000
     32 C          66.1563   92.3885   16.3643 C.ar    1  UNL1        0.0000
     33 C          65.3196   92.1222   15.1482 C.ar    1  UNL1        0.0012
     34 C          65.8999   92.3235   13.7798 C.ar    1  UNL1        0.0155
     35 C          64.2062   85.8655   14.0240 C.3     1  UNL1        0.1341
     36 C          63.6333   86.1407   15.3827 C.ar    1  UNL1        0.0004
     37 C          62.9662   85.0395   16.1524 C.ar    1  UNL1       -0.0024
     38 C          62.3933   85.3146   17.5111 C.ar    1  UNL1       -0.0003
     39 C          62.4874   86.6909   18.1001 C.ar    1  UNL1       -0.0000
     40 C          63.1545   87.7921   17.3304 C.ar    1  UNL1       -0.0003
     41 C          63.7274   87.5170   15.9717 C.ar    1  UNL1       -0.0024
@<TRIPOS>BOND
     1     1     2    1
     2     2     3   ar
     3     3     4    2
     4     3     5   ar
     5     5    24    1
     6    24    25    1
     7    25    26   ar
     8    26    27   ar
     9    27    28   ar
    10    28    29   ar
    11    29    30   ar
    12    30    31   ar
    13    31    32   ar
    14    32    33   ar
    15    33    34   ar
    16     5     6   ar
    17     6     7    2
    18     6     8   ar
    19     8     9   ar
    20     9    10   ar
    21    10    22    1
    22    22    23    3
    23    10    11   ar
    24    11    13    1
    25    13    14    1
    26    14    15    1
    27    15    16    1
    28    16    17    1
    29    17    18    1
    30    17    19    1
    31    11    12   ar
    32    12    35    1
    33    35    36    1
    34    36    37   ar
    35    37    38   ar
    36    38    39   ar
    37    39    40   ar
    38    40    41   ar
    39     9     2   ar
    40    19    13    1
    41    41    36   ar
    42    34    25   ar
    43    12     8   ar
    44    34    29   ar
    45    18    20    1
    46    18    21    1
@<TRIPOS>MOLECULE
*****
 41 46 0 0 0
SMALL
GASTEIGER

@<TRIPOS>ATOM
      1 C          63.5678   87.0641   16.5797 C.3     1  UNL1        0.1351
      2 N          63.4643   87.5850   15.1768 N.ar    1  UNL1       -0.2770
      3 C          63.4667   89.0634   14.9237 C.ar    1  UNL1        0.3342
      4 O          63.5724   90.0210   16.0734 O.2     1  UNL1       -0.2462
      5 N          63.3633   89.5843   13.5208 N.ar    1  UNL1       -0.2417
      6 C          63.2575   88.6267   12.3711 C.ar    1  UNL1        0.2819
      7 O          63.1541   89.1475   10.9683 O.2     1  UNL1       -0.2652
      8 C          63.2552   87.1482   12.6243 C.ar    1  UNL1        0.1349
      9 C          63.3586   86.6273   14.0272 C.ar    1  UNL1        0.0966
     10 C          63.3312   85.1287   13.9684 C.ar    1  UNL1        0.1156
     11 C          63.2108   84.7234   12.5292 C.ar    1  UNL1        0.1240
     12 N          63.1639   85.9715   11.6985 N.ar    1  UNL1       -0.3063
     13 N          63.1484   83.3169   12.0116 N.pl3   1  UNL1       -0.2926
     14 C          63.6273   83.0063   10.6245 C.3     1  UNL1        0.0922
     15 C          63.5649   81.5998   10.1069 C.3     1  UNL1        0.0229
     16 C          63.0236   80.5040   10.9765 C.3     1  UNL1        0.0190
     17 C          62.5447   80.8146   12.3636 C.3     1  UNL1        0.0709
     18 N          62.0034   79.7187   13.2331 N.3     1  UNL1       -0.3208
     19 C          62.6071   82.2210   12.8812 C.3     1  UNL1        0.1075
     20 H          62.0349   78.8348   12.7252 H       1  UNL1        0.1189
     21 H          61.0385   79.9311   13.4866 H       1  UNL1        0.1189
     22 C          63.4103   84.1988   15.1427 C.1     1  UNL1        0.1047
     23 N          63.4894   83.2687   16.3169 N.1     1  UNL1       -0.1907
     24 C          63.3656   91.0628   13.2676 C.3     1  UNL1        0.1593
     25 C          64.6163   91.7401   12.7912 C.ar    1  UNL1        0.0821
     26 N          64.8397   91.9564   11.3238 N.ar    1  UNL1       -0.2462
     27 C          66.0903   92.6338   10.8474 C.ar    1  UNL1        0.0985
     28 C          67.1176   93.0949   11.8384 C.ar    1  UNL1        0.0207
     29 C          66.8943   92.8786   13.3058 C.ar    1  UNL1        0.0027
     30 C          67.9216   93.3396   14.2968 C.ar    1  UNL1        0.0001
     31 C          67.6982   93.1233   15.7642 C.ar    1  UNL1        0.0000
     32 C          66.4475   92.4460   16.2406 C.ar    1  UNL1        0.0000
     33 C          65.4202   91.9849   15.2496 C.ar    1  UNL1        0.0012
     34 C          65.6436   92.2012   13.7823 C.ar    1  UNL1        0.0155
     35 C          63.0462   86.0323   10.2044 C.3     1  UNL1        0.1341
     36 C          61.7209   86.3292    9.5678 C.ar    1  UNL1        0.0004
     37 C          61.3937   85.7631    8.2178 C.ar    1  UNL1       -0.0024
     38 C          60.0684   86.0599    7.5812 C.ar    1  UNL1       -0.0003
     39 C          59.0702   86.9229    8.2945 C.ar    1  UNL1       -0.0000
     40 C          59.3974   87.4890    9.6445 C.ar    1  UNL1       -0.0003
     41 C          60.7227   87.1922   10.2812 C.ar    1  UNL1       -0.0024
@<TRIPOS>BOND
     1     1     2    1
     2     2     3   ar
     3     3     4    2
     4     3     5   ar
     5     5    24    1
     6    24    25    1
     7    25    26   ar
     8    26    27   ar
     9    27    28   ar
    10    28    29   ar
    11    29    30   ar
    12    30    31   ar
    13    31    32   ar
    14    32    33   ar
    15    33    34   ar
    16     5     6   ar
    17     6     7    2
    18     6     8   ar
    19     8     9   ar
    20     9    10   ar
    21    10    22    1
    22    22    23    3
    23    10    11   ar
    24    11    13    1
    25    13    14    1
    26    14    15    1
    27    15    16    1
    28    16    17    1
    29    17    18    1
    30    17    19    1
    31    11    12   ar
    32    12    35    1
    33    35    36    1
    34    36    37   ar
    35    37    38   ar
    36    38    39   ar
    37    39    40   ar
    38    40    41   ar
    39     9     2   ar
    40    19    13    1
    41    41    36   ar
    42    34    25   ar
    43    12     8   ar
    44    34    29   ar
    45    18    20    1
    46    18    21    1
@<TRIPOS>MOLECULE
*****
 41 46 0 0 0
SMALL
GASTEIGER

@<TRIPOS>ATOM
      1 C          63.5294   86.7700   16.8647 C.3     1  UNL1        0.1351
      2 N          63.4563   87.4004   15.5056 N.ar    1  UNL1       -0.2770
      3 C          63.4485   88.8943   15.3712 C.ar    1  UNL1        0.3342
      4 O          63.5137   89.7579   16.5960 O.2     1  UNL1       -0.2462
      5 N          63.3753   89.5248   14.0120 N.ar    1  UNL1       -0.2417
      6 C          63.3101   88.6612   12.7873 C.ar    1  UNL1        0.2819
      7 O          63.2370   89.2916   11.4282 O.2     1  UNL1       -0.2652
      8 C          63.3179   87.1672   12.9217 C.ar    1  UNL1        0.1349
      9 C          63.3911   86.5368   14.2808 C.ar    1  UNL1        0.0966
     10 C          63.3821   85.0476   14.1021 C.ar    1  UNL1        0.1156
     11 C          63.3035   84.7575   12.6325 C.ar    1  UNL1        0.1240
     12 N          63.2638   86.0676   11.9030 N.ar    1  UNL1       -0.3063
     13 N          63.2703   83.3964   12.0029 N.pl3   1  UNL1       -0.2926
     14 C          63.7631   83.2073   10.5989 C.3     1  UNL1        0.0922
     15 C          63.7299   81.8462    9.9694 C.3     1  UNL1        0.0229
     16 C          63.2040   80.6742   10.7439 C.3     1  UNL1        0.0190
     17 C          62.7113   80.8634   12.1480 C.3     1  UNL1        0.0709
     18 N          62.1854   79.6914   12.9225 N.3     1  UNL1       -0.3208
     19 C          62.7444   82.2244   12.7775 C.3     1  UNL1        0.1075
     20 H          62.2363   78.8519   12.3454 H       1  UNL1        0.1189
     21 H          61.2152   79.8651   13.1851 H       1  UNL1        0.1189
     22 C          63.4414   84.0275   15.2002 C.1     1  UNL1        0.1047
     23 N          63.5007   83.0072   16.2982 N.1     1  UNL1       -0.1907
     24 C          63.3675   91.0187   13.8777 C.3     1  UNL1        0.1593
     25 C          64.6527   91.7867   13.9693 C.ar    1  UNL1        0.0821
     26 N          65.2999   92.0093   15.3040 N.ar    1  UNL1       -0.2462
     27 C          66.5851   92.7774   15.3956 C.ar    1  UNL1        0.0985
     28 C          67.2231   93.3228   14.1525 C.ar    1  UNL1        0.0207
     29 C          66.5759   93.1002   12.8176 C.ar    1  UNL1        0.0027
     30 C          67.2139   93.6456   11.5745 C.ar    1  UNL1        0.0001
     31 C          66.5667   93.4230   10.2398 C.ar    1  UNL1        0.0000
     32 C          65.2815   92.6550   10.1482 C.ar    1  UNL1        0.0000
     33 C          64.6435   92.1095   11.3913 C.ar    1  UNL1        0.0012
     34 C          65.2907   92.3322   12.7260 C.ar    1  UNL1        0.0155
     35 C          63.1840   86.2465   10.4158 C.3     1  UNL1        0.1341
     36 C          61.8554   86.4743    9.7580 C.ar    1  UNL1        0.0004
     37 C          61.5709   85.8718    8.4141 C.ar    1  UNL1       -0.0024
     38 C          60.2423   86.0996    7.7561 C.ar    1  UNL1       -0.0003
     39 C          59.1981   86.9297    8.4421 C.ar    1  UNL1       -0.0000
     40 C          59.4827   87.5322    9.7860 C.ar    1  UNL1       -0.0003
     41 C          60.8113   87.3045   10.4440 C.ar    1  UNL1       -0.0024
@<TRIPOS>BOND
     1     1     2    1
     2     2     3   ar
     3     3     4    2
     4     3     5   ar
     5     5    24    1
     6    24    25    1
     7    25    26   ar
     8    26    27   ar
     9    27    28   ar
    10    28    29   ar
    11    29    30   ar
    12    30    31   ar
    13    31    32   ar
    14    32    33   ar
    15    33    34   ar
    16     5     6   ar
    17     6     7    2
    18     6     8   ar
    19     8     9   ar
    20     9    10   ar
    21    10    22    1
    22    22    23    3
    23    10    11   ar
    24    11    13    1
    25    13    14    1
    26    14    15    1
    27    15    16    1
    28    16    17    1
    29    17    18    1
    30    17    19    1
    31    11    12   ar
    32    12    35    1
    33    35    36    1
    34    36    37   ar
    35    37    38   ar
    36    38    39   ar
    37    39    40   ar
    38    40    41   ar
    39     9     2   ar
    40    19    13    1
    41    41    36   ar
    42    34    25   ar
    43    12     8   ar
    44    34    29   ar
    45    18    20    1
    46    18    21    1
@<TRIPOS>MOLECULE
*****
 41 46 0 0 0
SMALL
GASTEIGER

@<TRIPOS>ATOM
      1 C          61.0554   89.5987   14.6697 C.3     1  UNL1        0.1351
      2 N          61.5786   90.0085   13.3250 N.ar    1  UNL1       -0.2770
      3 C          60.7420   89.7962   12.0983 C.ar    1  UNL1        0.3342
      4 O          59.3822   89.1742   12.2162 O.2     1  UNL1       -0.2462
      5 N          61.2652   90.2061   10.7535 N.ar    1  UNL1       -0.2417
      6 C          62.6251   90.8281   10.6356 C.ar    1  UNL1        0.2819
      7 O          63.1483   91.2380    9.2909 O.2     1  UNL1       -0.2652
      8 C          63.4617   91.0404   11.8624 C.ar    1  UNL1        0.1349
      9 C          62.9385   90.6305   13.2071 C.ar    1  UNL1        0.0966
     10 C          63.9828   90.9620   14.2315 C.ar    1  UNL1        0.1156
     11 C          65.1515   91.5767   13.5199 C.ar    1  UNL1        0.1240
     12 N          64.8294   91.6251   12.0557 N.ar    1  UNL1       -0.3063
     13 N          66.4197   92.0584   14.1601 N.pl3   1  UNL1       -0.2926
     14 C          66.3655   92.8232   15.4493 C.3     1  UNL1        0.0922
     15 C          67.6336   93.3048   16.0895 C.3     1  UNL1        0.0229
     16 C          68.9559   93.0217   15.4404 C.3     1  UNL1        0.0190
     17 C          69.0101   92.2569   14.1512 C.3     1  UNL1        0.0709
     18 N          70.3324   91.9738   13.5021 N.3     1  UNL1       -0.3208
     19 C          67.7420   91.7753   13.5110 C.3     1  UNL1        0.1075
     20 H          71.0815   92.3710   14.0691 H       1  UNL1        0.1189
     21 H          70.3513   92.3926   12.5722 H       1  UNL1        0.1189
     22 C          63.8771   90.7211   15.7082 C.1     1  UNL1        0.1047
     23 N          63.7713   90.4800   17.1850 N.1     1  UNL1       -0.1907
     24 C          60.4286   89.9938    9.5267 C.3     1  UNL1        0.1593
     25 C          60.3255   88.6275    8.9164 C.ar    1  UNL1        0.0821
     26 N          59.4671   88.4097    7.7058 N.ar    1  UNL1       -0.2462
     27 C          59.3639   87.0434    7.0955 C.ar    1  UNL1        0.0985
     28 C          60.1192   85.8948    7.6958 C.ar    1  UNL1        0.0207
     29 C          60.9776   86.1126    8.9065 C.ar    1  UNL1        0.0027
     30 C          61.7328   84.9641    9.5068 C.ar    1  UNL1        0.0001
     31 C          62.5912   85.1819   10.7174 C.ar    1  UNL1        0.0000
     32 C          62.6944   86.5482   11.3278 C.ar    1  UNL1        0.0000
     33 C          61.9391   87.6967   10.7274 C.ar    1  UNL1        0.0012
     34 C          61.0808   87.4789    9.5168 C.ar    1  UNL1        0.0155
     35 C          65.7188   92.1637   10.9746 C.3     1  UNL1        0.1341
     36 C          66.0028   93.6347   10.9004 C.ar    1  UNL1        0.0004
     37 C          66.3462   94.2667    9.5841 C.ar    1  UNL1       -0.0024
     38 C          66.6302   95.7377    9.5099 C.ar    1  UNL1       -0.0003
     39 C          66.5709   96.5766   10.7519 C.ar    1  UNL1       -0.0000
     40 C          66.2275   95.9446   12.0682 C.ar    1  UNL1       -0.0003
     41 C          65.9435   94.4736   12.1425 C.ar    1  UNL1       -0.0024
@<TRIPOS>BOND
     1     1     2    1
     2     2     3   ar
     3     3     4    2
     4     3     5   ar
     5     5    24    1
     6    24    25    1
     7    25    26   ar
     8    26    27   ar
     9    27    28   ar
    10    28    29   ar
    11    29    30   ar
    12    30    31   ar
    13    31    32   ar
    14    32    33   ar
    15    33    34   ar
    16     5     6   ar
    17     6     7    2
    18     6     8   ar
    19     8     9   ar
    20     9    10   ar
    21    10    22    1
    22    22    23    3
    23    10    11   ar
    24    11    13    1
    25    13    14    1
    26    14    15    1
    27    15    16    1
    28    16    17    1
    29    17    18    1
    30    17    19    1
    31    11    12   ar
    32    12    35    1
    33    35    36    1
    34    36    37   ar
    35    37    38   ar
    36    38    39   ar
    37    39    40   ar
    38    40    41   ar
    39     9     2   ar
    40    19    13    1
    41    41    36   ar
    42    34    25   ar
    43    12     8   ar
    44    34    29   ar
    45    18    20    1
    46    18    21    1
@<TRIPOS>MOLECULE
*****
 41 46 0 0 0
SMALL
GASTEIGER

@<TRIPOS>ATOM
      1 C          63.2660   86.6013   17.0578 C.3     1  UNL1        0.1351
      2 N          63.3291   87.2532   15.7083 N.ar    1  UNL1       -0.2770
      3 C          63.4091   88.7471   15.6001 C.ar    1  UNL1        0.3342
      4 O          63.4260   89.5892   16.8413 O.2     1  UNL1       -0.2462
      5 N          63.4722   89.3990   14.2506 N.ar    1  UNL1       -0.2417
      6 C          63.4553   88.5570   13.0094 C.ar    1  UNL1        0.2819
      7 O          63.5184   89.2088   11.6599 O.2     1  UNL1       -0.2652
      8 C          63.3753   87.0630   13.1177 C.ar    1  UNL1        0.1349
      9 C          63.3122   86.4111   14.4671 C.ar    1  UNL1        0.0966
     10 C          63.2396   84.9270   14.2620 C.ar    1  UNL1        0.1156
     11 C          63.2577   84.6616   12.7858 C.ar    1  UNL1        0.1240
     12 N          63.3416   85.9818   12.0785 N.ar    1  UNL1       -0.3063
     13 N          63.2018   83.3129   12.1316 N.pl3   1  UNL1       -0.2926
     14 C          63.6704   83.1457   10.7166 C.3     1  UNL1        0.0922
     15 C          63.6145   81.7970   10.0625 C.3     1  UNL1        0.0229
     16 C          63.0899   80.6156   10.8234 C.3     1  UNL1        0.0190
     17 C          62.6213   80.7828   12.2385 C.3     1  UNL1        0.0709
     18 N          62.0968   79.6013   12.9994 N.3     1  UNL1       -0.3208
     19 C          62.6773   82.1315   12.8926 C.3     1  UNL1        0.1075
     20 H          62.1306   78.7724   12.4060 H       1  UNL1        0.1189
     21 H          61.1325   79.7789   13.2807 H       1  UNL1        0.1189
     22 C          63.1623   83.8903   15.3433 C.1     1  UNL1        0.1047
     23 N          63.0851   82.8536   16.4247 N.1     1  UNL1       -0.1907
     24 C          63.5521   90.8930   14.1424 C.3     1  UNL1        0.1593
     25 C          64.5972   91.5271   13.2731 C.ar    1  UNL1        0.0821
     26 N          64.2650   91.9159   11.8630 N.ar    1  UNL1       -0.2462
     27 C          65.3101   92.5500   10.9938 C.ar    1  UNL1        0.0985
     28 C          66.6875   92.7954   11.5346 C.ar    1  UNL1        0.0207
     29 C          67.0198   92.4066   12.9448 C.ar    1  UNL1        0.0027
     30 C          68.3972   92.6519   13.4856 C.ar    1  UNL1        0.0001
     31 C          68.7295   92.2631   14.8957 C.ar    1  UNL1        0.0000
     32 C          67.6844   91.6290   15.7649 C.ar    1  UNL1        0.0000
     33 C          66.3070   91.3836   15.2241 C.ar    1  UNL1        0.0012
     34 C          65.9747   91.7724   13.8140 C.ar    1  UNL1        0.0155
     35 C          63.3843   86.1850   10.5930 C.3     1  UNL1        0.1341
     36 C          62.1074   86.2742    9.8111 C.ar    1  UNL1        0.0004
     37 C          60.8512   86.7503   10.4784 C.ar    1  UNL1       -0.0024
     38 C          59.5742   86.8395    9.6966 C.ar    1  UNL1       -0.0003
     39 C          59.5533   86.4525    8.2475 C.ar    1  UNL1       -0.0000
     40 C          60.8095   85.9763    7.5803 C.ar    1  UNL1       -0.0003
     41 C          62.0866   85.8872    8.3620 C.ar    1  UNL1       -0.0024
@<TRIPOS>BOND
     1     1     2    1
     2     2     3   ar
     3     3     4    2
     4     3     5   ar
     5     5    24    1
     6    24    25    1
     7    25    26   ar
     8    26    27   ar
     9    27    28   ar
    10    28    29   ar
    11    29    30   ar
    12    30    31   ar
    13    31    32   ar
    14    32    33   ar
    15    33    34   ar
    16     5     6   ar
    17     6     7    2
    18     6     8   ar
    19     8     9   ar
    20     9    10   ar
    21    10    22    1
    22    22    23    3
    23    10    11   ar
    24    11    13    1
    25    13    14    1
    26    14    15    1
    27    15    16    1
    28    16    17    1
    29    17    18    1
    30    17    19    1
    31    11    12   ar
    32    12    35    1
    33    35    36    1
    34    36    37   ar
    35    37    38   ar
    36    38    39   ar
    37    39    40   ar
    38    40    41   ar
    39     9     2   ar
    40    19    13    1
    41    41    36   ar
    42    34    25   ar
    43    12     8   ar
    44    34    29   ar
    45    18    20    1
    46    18    21    1
@<TRIPOS>MOLECULE
*****
 41 46 0 0 0
SMALL
GASTEIGER

@<TRIPOS>ATOM
      1 C          62.0067   89.9931    9.3677 C.3     1  UNL1        0.1351
      2 N          62.8672   90.0507   10.5949 N.ar    1  UNL1       -0.2770
      3 C          63.5345   91.3367   10.9833 C.ar    1  UNL1        0.3342
      4 O          63.3413   92.5651   10.1444 O.2     1  UNL1       -0.2462
      5 N          64.3951   91.3944   12.2106 N.ar    1  UNL1       -0.2417
      6 C          64.5883   90.1660   13.0494 C.ar    1  UNL1        0.2819
      7 O          65.4488   90.2235   14.2766 O.2     1  UNL1       -0.2652
      8 C          63.9209   88.8799   12.6610 C.ar    1  UNL1        0.1349
      9 C          63.0604   88.8223   11.4338 C.ar    1  UNL1        0.0966
     10 C          62.5342   87.4239   11.3019 C.ar    1  UNL1        0.1156
     11 C          63.0695   86.6172   12.4476 C.ar    1  UNL1        0.1240
     12 N          63.9266   87.5171   13.2876 N.ar    1  UNL1       -0.3063
     13 N          62.7958   85.1654   12.7077 N.pl3   1  UNL1       -0.2926
     14 C          62.1769   84.7398   14.0061 C.3     1  UNL1        0.0922
     15 C          61.9033   83.2881   14.2661 C.3     1  UNL1        0.0229
     16 C          62.2484   82.2621   13.2278 C.3     1  UNL1        0.0190
     17 C          62.8673   82.6877   11.9294 C.3     1  UNL1        0.0709
     18 N          63.2125   81.6617   10.8911 N.3     1  UNL1       -0.3208
     19 C          63.1410   84.1394   11.6694 C.3     1  UNL1        0.1075
     20 H          62.9603   80.7342   11.2326 H       1  UNL1        0.1189
     21 H          64.2142   81.6935   10.7015 H       1  UNL1        0.1189
     22 C          61.6312   86.9205   10.2151 C.1     1  UNL1        0.1047
     23 N          60.7281   86.4172    9.1281 N.1     1  UNL1       -0.1907
     24 C          65.0624   92.6804   12.5989 C.3     1  UNL1        0.1593
     25 C          65.5637   93.6153   11.5385 C.ar    1  UNL1        0.0821
     26 N          64.9532   94.9773   11.3897 N.ar    1  UNL1       -0.2462
     27 C          65.4545   95.9122   10.3293 C.ar    1  UNL1        0.0985
     28 C          66.5664   95.4851    9.4176 C.ar    1  UNL1        0.0207
     29 C          67.1770   94.1231    9.5663 C.ar    1  UNL1        0.0027
     30 C          68.2889   93.6960    8.6546 C.ar    1  UNL1        0.0001
     31 C          68.8995   92.3340    8.8033 C.ar    1  UNL1        0.0000
     32 C          68.3981   91.3991    9.8638 C.ar    1  UNL1        0.0000
     33 C          67.2862   91.8261   10.7755 C.ar    1  UNL1        0.0012
     34 C          66.6757   93.1881   10.6267 C.ar    1  UNL1        0.0155
     35 C          64.6604   87.1233   14.5351 C.3     1  UNL1        0.1341
     36 C          63.9413   87.0955   15.8512 C.ar    1  UNL1        0.0004
     37 C          63.6780   85.7864   16.5344 C.ar    1  UNL1       -0.0024
     38 C          62.9589   85.7585   17.8505 C.ar    1  UNL1       -0.0003
     39 C          62.5031   87.0398   18.4834 C.ar    1  UNL1       -0.0000
     40 C          62.7664   88.3489   17.8002 C.ar    1  UNL1       -0.0003
     41 C          63.4855   88.3768   16.4841 C.ar    1  UNL1       -0.0024
@<TRIPOS>BOND
     1     1     2    1
     2     2     3   ar
     3     3     4    2
     4     3     5   ar
     5     5    24    1
     6    24    25    1
     7    25    26   ar
     8    26    27   ar
     9    27    28   ar
    10    28    29   ar
    11    29    30   ar
    12    30    31   ar
    13    31    32   ar
    14    32    33   ar
    15    33    34   ar
    16     5     6   ar
    17     6     7    2
    18     6     8   ar
    19     8     9   ar
    20     9    10   ar
    21    10    22    1
    22    22    23    3
    23    10    11   ar
    24    11    13    1
    25    13    14    1
    26    14    15    1
    27    15    16    1
    28    16    17    1
    29    17    18    1
    30    17    19    1
    31    11    12   ar
    32    12    35    1
    33    35    36    1
    34    36    37   ar
    35    37    38   ar
    36    38    39   ar
    37    39    40   ar
    38    40    41   ar
    39     9     2   ar
    40    19    13    1
    41    41    36   ar
    42    34    25   ar
    43    12     8   ar
    44    34    29   ar
    45    18    20    1
    46    18    21    1
