@<TRIPOS>MOLECULE
*****
 25 27 0 0 0
SMALL
GASTEIGER

@<TRIPOS>ATOM
      1 C          61.9798   85.6858   10.5748 C.2     1  UNL1        0.2650
      2 O          62.8015   85.6928    9.3199 O.2     1  UNL1       -0.2684
      3 N          60.7654   86.5600   10.6809 N.am    1  UNL1       -0.3011
      4 H          60.2261   86.5555   11.5045 H       1  UNL1        0.1497
      5 C          62.6574   82.8622   13.1503 C.ar    1  UNL1        0.1239
      6 N          62.0868   83.3374   11.8470 N.ar    1  UNL1       -0.2260
      7 C          62.3724   84.8048   11.7235 C.ar    1  UNL1        0.1517
      8 C          63.1195   85.2365   12.9505 C.ar    1  UNL1        0.0872
      9 C          63.6622   86.5676   13.3788 C.ar    1  UNL1        0.0193
     10 C          64.3810   86.6982   14.6888 C.ar    1  UNL1        0.0031
     11 C          64.5572   85.4976   15.5706 C.ar    1  UNL1        0.0191
     12 C          64.0145   84.1665   15.1423 C.ar    1  UNL1        0.0811
     13 N          63.2957   84.0359   13.8323 N.ar    1  UNL1       -0.2921
     14 C          63.8518   80.6373   13.7614 C.3     1  UNL1        0.0079
     15 C          62.5999   81.4596   13.6788 C.3     1  UNL1        0.0573
     16 C          61.2907   80.8792   14.1246 C.3     1  UNL1        0.0079
     17 C          60.3728   87.4411    9.5322 C.3     1  UNL1        0.0747
     18 C          59.6409   86.8612    8.3583 C.3     1  UNL1        0.0369
     19 C          59.2484   87.7422    7.2096 C.3     1  UNL1        0.0737
     20 N          59.5877   89.2031    7.2347 N.3     1  UNL1       -0.2738
     21 C          60.3196   89.7830    8.4086 C.3     1  UNL1        0.0737
     22 C          60.7121   88.9020    9.5573 C.3     1  UNL1        0.0369
     23 C          59.1950   90.0841    6.0859 C.3     1  UNL1        0.0576
     24 C          57.7469   90.3743    5.8239 C.3     1  UNL1        0.0173
     25 C          60.2507   90.6750    5.1991 C.3     1  UNL1        0.0173
@<TRIPOS>BOND
     1    14    15    1
     2    15    16    1
     3    15     5    1
     4     5     6   ar
     5     6     7   ar
     6     7     1    1
     7     1     2    2
     8     1     3   am
     9     3    17    1
    10    17    18    1
    11    18    19    1
    12    19    20    1
    13    20    23    1
    14    23    24    1
    15    23    25    1
    16    20    21    1
    17    21    22    1
    18     7     8   ar
    19     8     9   ar
    20     9    10   ar
    21    10    11   ar
    22    11    12   ar
    23    12    13   ar
    24    13     5   ar
    25    22    17    1
    26    13     8   ar
    27     3     4    1
@<TRIPOS>MOLECULE
*****
 25 27 0 0 0
SMALL
GASTEIGER

@<TRIPOS>ATOM
      1 C          63.7173   87.2526   14.0933 C.2     1  UNL1        0.2650
      2 O          63.5370   86.7207   15.4841 O.2     1  UNL1       -0.2684
      3 N          63.4499   86.3682   12.9115 N.am    1  UNL1       -0.3011
      4 H          63.5682   86.7173   11.9986 H       1  UNL1        0.1497
      5 C          65.2327   90.8241   14.2088 C.ar    1  UNL1        0.1239
      6 N          65.0411   89.4622   14.8076 N.ar    1  UNL1       -0.2260
      7 C          64.1650   88.6689   13.8840 C.ar    1  UNL1        0.1517
      8 C          63.8151   89.5405   12.7144 C.ar    1  UNL1        0.0872
      9 C          62.9809   89.2933   11.4926 C.ar    1  UNL1        0.0193
     10 C          62.8066   90.3781   10.4715 C.ar    1  UNL1        0.0031
     11 C          63.4665   91.7101   10.6722 C.ar    1  UNL1        0.0191
     12 C          64.3007   91.9573   11.8941 C.ar    1  UNL1        0.0811
     13 N          64.4750   90.8725   12.9152 N.ar    1  UNL1       -0.2921
     14 C          67.2231   92.4869   14.0560 C.3     1  UNL1        0.0079
     15 C          66.0402   91.9415   14.7999 C.3     1  UNL1        0.0573
     16 C          65.6650   92.5134   16.1348 C.3     1  UNL1        0.0079
     17 C          63.0022   84.9519   13.1207 C.3     1  UNL1        0.0747
     18 C          62.6852   84.4620   14.5026 C.3     1  UNL1        0.0369
     19 C          62.2375   83.0458   14.7118 C.3     1  UNL1        0.0737
     20 N          62.1069   82.1195   13.5392 N.3     1  UNL1       -0.2738
     21 C          62.4239   82.6094   12.1574 C.3     1  UNL1        0.0737
     22 C          62.8716   84.0256   11.9482 C.3     1  UNL1        0.0369
     23 C          61.6592   80.7032   13.7486 C.3     1  UNL1        0.0576
     24 C          60.2581   80.4187   14.2026 C.3     1  UNL1        0.0173
     25 C          62.6126   79.5714   13.5039 C.3     1  UNL1        0.0173
@<TRIPOS>BOND
     1    14    15    1
     2    15    16    1
     3    15     5    1
     4     5     6   ar
     5     6     7   ar
     6     7     1    1
     7     1     2    2
     8     1     3   am
     9     3    17    1
    10    17    18    1
    11    18    19    1
    12    19    20    1
    13    20    23    1
    14    23    24    1
    15    23    25    1
    16    20    21    1
    17    21    22    1
    18     7     8   ar
    19     8     9   ar
    20     9    10   ar
    21    10    11   ar
    22    11    12   ar
    23    12    13   ar
    24    13     5   ar
    25    22    17    1
    26    13     8   ar
    27     3     4    1
@<TRIPOS>MOLECULE
*****
 25 27 0 0 0
SMALL
GASTEIGER

@<TRIPOS>ATOM
      1 C          63.2611   87.5295   12.9877 C.2     1  UNL1        0.2650
      2 O          62.1922   87.1943   11.9902 O.2     1  UNL1       -0.2684
      3 N          63.8712   86.4454   13.8259 N.am    1  UNL1       -0.3011
      4 H          64.5728   86.6654   14.4807 H       1  UNL1        0.1497
      5 C          64.5593   91.1722   12.6555 C.ar    1  UNL1        0.1239
      6 N          64.2056   89.8470   12.0484 N.ar    1  UNL1       -0.2260
      7 C          63.7198   88.9487   13.1471 C.ar    1  UNL1        0.1517
      8 C          63.7733   89.7188   14.4332 C.ar    1  UNL1        0.0872
      9 C          63.4165   89.3463   15.8417 C.ar    1  UNL1        0.0193
     10 C          63.5787   90.3480   16.9464 C.ar    1  UNL1        0.0031
     11 C          64.0975   91.7222   16.6426 C.ar    1  UNL1        0.0191
     12 C          64.4543   92.0947   15.2341 C.ar    1  UNL1        0.0811
     13 N          64.2921   91.0930   14.1294 N.ar    1  UNL1       -0.2921
     14 C          64.7106   92.5898   10.4834 C.3     1  UNL1        0.0079
     15 C          65.0875   92.3669   11.9182 C.3     1  UNL1        0.0573
     16 C          65.9926   93.3388   12.6154 C.3     1  UNL1        0.0079
     17 C          63.4125   85.0262   13.6665 C.3     1  UNL1        0.0747
     18 C          62.6325   84.3626   14.7625 C.3     1  UNL1        0.0369
     19 C          62.1737   82.9434   14.6031 C.3     1  UNL1        0.0737
     20 N          62.4950   82.1879   13.3478 N.3     1  UNL1       -0.2738
     21 C          63.2750   82.8514   12.2518 C.3     1  UNL1        0.0737
     22 C          63.7338   84.2706   12.4112 C.3     1  UNL1        0.0369
     23 C          62.0362   80.7686   13.1884 C.3     1  UNL1        0.0576
     24 C          62.6689   79.8876   12.1524 C.3     1  UNL1        0.0173
     25 C          60.9446   80.2305   14.0653 C.3     1  UNL1        0.0173
@<TRIPOS>BOND
     1    14    15    1
     2    15    16    1
     3    15     5    1
     4     5     6   ar
     5     6     7   ar
     6     7     1    1
     7     1     2    2
     8     1     3   am
     9     3    17    1
    10    17    18    1
    11    18    19    1
    12    19    20    1
    13    20    23    1
    14    23    24    1
    15    23    25    1
    16    20    21    1
    17    21    22    1
    18     7     8   ar
    19     8     9   ar
    20     9    10   ar
    21    10    11   ar
    22    11    12   ar
    23    12    13   ar
    24    13     5   ar
    25    22    17    1
    26    13     8   ar
    27     3     4    1
@<TRIPOS>MOLECULE
*****
 25 27 0 0 0
SMALL
GASTEIGER

@<TRIPOS>ATOM
      1 C          62.9487   86.1617   12.1492 C.2     1  UNL1        0.2650
      2 O          61.8183   85.8601   11.2105 O.2     1  UNL1       -0.2684
      3 N          63.8106   85.0487   12.6674 N.am    1  UNL1       -0.3011
      4 H          64.5525   85.2466   13.2835 H       1  UNL1        0.1497
      5 C          63.8412   89.5115   13.8949 C.ar    1  UNL1        0.1239
      6 N          63.7160   88.0168   13.9141 N.ar    1  UNL1       -0.2260
      7 C          63.2173   87.5763   12.5698 C.ar    1  UNL1        0.1517
      8 C          63.0343   88.7986   11.7198 C.ar    1  UNL1        0.0872
      9 C          62.5664   88.9771   10.3059 C.ar    1  UNL1        0.0193
     10 C          62.4841   90.3516    9.7110 C.ar    1  UNL1        0.0031
     11 C          62.8697   91.5476   10.5300 C.ar    1  UNL1        0.0191
     12 C          63.3377   91.3691   11.9439 C.ar    1  UNL1        0.0811
     13 N          63.4199   89.9946   12.5388 N.ar    1  UNL1       -0.2921
     14 C          65.5493   91.1989   14.8876 C.3     1  UNL1        0.0079
     15 C          64.3061   90.3719   15.0322 C.3     1  UNL1        0.0573
     16 C          63.5280   90.4055   16.3141 C.3     1  UNL1        0.0079
     17 C          63.5420   83.6341   12.2468 C.3     1  UNL1        0.0747
     18 C          62.8204   82.7006   13.1730 C.3     1  UNL1        0.0369
     19 C          62.5518   81.2860   12.7524 C.3     1  UNL1        0.0737
     20 N          63.0048   80.8050   11.4058 N.3     1  UNL1       -0.2738
     21 C          63.7264   81.7386   10.4796 C.3     1  UNL1        0.0737
     22 C          63.9950   83.1531   10.9002 C.3     1  UNL1        0.0369
     23 C          62.7362   79.3904   10.9853 C.3     1  UNL1        0.0576
     24 C          62.7866   79.0170    9.5334 C.3     1  UNL1        0.0173
     25 C          62.4171   78.3492   12.0168 C.3     1  UNL1        0.0173
@<TRIPOS>BOND
     1    14    15    1
     2    15    16    1
     3    15     5    1
     4     5     6   ar
     5     6     7   ar
     6     7     1    1
     7     1     2    2
     8     1     3   am
     9     3    17    1
    10    17    18    1
    11    18    19    1
    12    19    20    1
    13    20    23    1
    14    23    24    1
    15    23    25    1
    16    20    21    1
    17    21    22    1
    18     7     8   ar
    19     8     9   ar
    20     9    10   ar
    21    10    11   ar
    22    11    12   ar
    23    12    13   ar
    24    13     5   ar
    25    22    17    1
    26    13     8   ar
    27     3     4    1
@<TRIPOS>MOLECULE
*****
 25 27 0 0 0
SMALL
GASTEIGER

@<TRIPOS>ATOM
      1 C          59.5072   94.3236   -0.2770 C.2     1  UNL1        0.2650
      2 O          59.0654   95.7361   -0.0337 O.2     1  UNL1       -0.2684
      3 N          58.8134   93.4885   -1.3121 N.am    1  UNL1       -0.3011
      4 H          59.1034   92.5613   -1.4719 H       1  UNL1        0.1497
      5 C          61.9023   92.4713    2.1516 C.ar    1  UNL1        0.1239
      6 N          60.5205   92.7821    1.6575 N.ar    1  UNL1       -0.2260
      7 C          60.6429   93.7460    0.5147 C.ar    1  UNL1        0.1517
      8 C          62.1002   94.0309    0.3025 C.ar    1  UNL1        0.0872
      9 C          62.8190   94.9059   -0.6811 C.ar    1  UNL1        0.0193
     10 C          64.3162   94.9931   -0.6531 C.ar    1  UNL1        0.0031
     11 C          65.0945   94.2053    0.3586 C.ar    1  UNL1        0.0191
     12 C          64.3757   93.3303    1.3422 C.ar    1  UNL1        0.0811
     13 N          62.8786   93.2431    1.3142 N.ar    1  UNL1       -0.2921
     14 C          63.5267   90.7680    3.2518 C.3     1  UNL1        0.0079
     15 C          62.2472   91.5504    3.2843 C.3     1  UNL1        0.0573
     16 C          61.3128   91.4117    4.4494 C.3     1  UNL1        0.0079
     17 C          57.6778   94.0660   -2.1038 C.3     1  UNL1        0.0747
     18 C          56.3001   94.1150   -1.5127 C.3     1  UNL1        0.0369
     19 C          55.1645   94.6926   -2.3044 C.3     1  UNL1        0.0737
     20 N          55.4066   95.2212   -3.6871 N.3     1  UNL1       -0.2738
     21 C          56.7843   95.1723   -4.2782 C.3     1  UNL1        0.0737
     22 C          57.9200   94.5947   -3.4865 C.3     1  UNL1        0.0369
     23 C          54.2709   95.7988   -4.4787 C.3     1  UNL1        0.0576
     24 C          53.0428   96.2959   -3.7755 C.3     1  UNL1        0.0173
     25 C          54.3634   95.8792   -5.9737 C.3     1  UNL1        0.0173
@<TRIPOS>BOND
     1    14    15    1
     2    15    16    1
     3    15     5    1
     4     5     6   ar
     5     6     7   ar
     6     7     1    1
     7     1     2    2
     8     1     3   am
     9     3    17    1
    10    17    18    1
    11    18    19    1
    12    19    20    1
    13    20    23    1
    14    23    24    1
    15    23    25    1
    16    20    21    1
    17    21    22    1
    18     7     8   ar
    19     8     9   ar
    20     9    10   ar
    21    10    11   ar
    22    11    12   ar
    23    12    13   ar
    24    13     5   ar
    25    22    17    1
    26    13     8   ar
    27     3     4    1
@<TRIPOS>MOLECULE
*****
 25 27 0 0 0
SMALL
GASTEIGER

@<TRIPOS>ATOM
      1 C          58.0323   94.1130   -2.1466 C.2     1  UNL1        0.2650
      2 O          57.1335   92.9356   -2.3823 O.2     1  UNL1       -0.2684
      3 N          57.4924   95.5065   -2.2764 N.am    1  UNL1       -0.3011
      4 H          58.0823   96.2794   -2.1217 H       1  UNL1        0.1497
      5 C          61.8854   93.6998   -1.9283 C.ar    1  UNL1        0.1239
      6 N          60.6412   93.9884   -2.7149 N.ar    1  UNL1       -0.2260
      7 C          59.4710   93.8972   -1.7810 C.ar    1  UNL1        0.1517
      8 C          59.9919   93.5522   -0.4173 C.ar    1  UNL1        0.0872
      9 C          59.3002   93.3334    0.8956 C.ar    1  UNL1        0.0193
     10 C          60.1008   92.9927    2.1174 C.ar    1  UNL1        0.0031
     11 C          61.5931   92.8707    2.0263 C.ar    1  UNL1        0.0191
     12 C          62.2847   93.0894    0.7135 C.ar    1  UNL1        0.0811
     13 N          61.4842   93.4302   -0.5084 N.ar    1  UNL1       -0.2921
     14 C          63.6982   92.6287   -3.4505 C.3     1  UNL1        0.0079
     15 C          63.2852   93.6836   -2.4671 C.3     1  UNL1        0.0573
     16 C          64.2721   94.7220   -2.0227 C.3     1  UNL1        0.0079
     17 C          56.0537   95.7224   -2.6420 C.3     1  UNL1        0.0747
     18 C          55.6673   95.9279   -4.0767 C.3     1  UNL1        0.0369
     19 C          54.2286   96.1437   -4.4423 C.3     1  UNL1        0.0737
     20 N          53.1765   96.1541   -3.3732 N.3     1  UNL1       -0.2738
     21 C          53.5629   95.9486   -1.9385 C.3     1  UNL1        0.0737
     22 C          55.0016   95.7328   -1.5729 C.3     1  UNL1        0.0369
     23 C          51.7378   96.3700   -3.7389 C.3     1  UNL1        0.0576
     24 C          51.2965   96.2246   -5.1651 C.3     1  UNL1        0.0173
     25 C          50.7405   96.7312   -2.6783 C.3     1  UNL1        0.0173
@<TRIPOS>BOND
     1    14    15    1
     2    15    16    1
     3    15     5    1
     4     5     6   ar
     5     6     7   ar
     6     7     1    1
     7     1     2    2
     8     1     3   am
     9     3    17    1
    10    17    18    1
    11    18    19    1
    12    19    20    1
    13    20    23    1
    14    23    24    1
    15    23    25    1
    16    20    21    1
    17    21    22    1
    18     7     8   ar
    19     8     9   ar
    20     9    10   ar
    21    10    11   ar
    22    11    12   ar
    23    12    13   ar
    24    13     5   ar
    25    22    17    1
    26    13     8   ar
    27     3     4    1
@<TRIPOS>MOLECULE
*****
 25 27 0 0 0
SMALL
GASTEIGER

@<TRIPOS>ATOM
      1 C          58.5615   94.0582   -1.3736 C.2     1  UNL1        0.2650
      2 O          57.5237   93.0251   -1.0490 O.2     1  UNL1       -0.2684
      3 N          58.1703   95.3128   -2.0971 N.am    1  UNL1       -0.3011
      4 H          58.8514   95.9909   -2.3101 H       1  UNL1        0.1497
      5 C          61.9820   93.4525    0.3580 C.ar    1  UNL1        0.1239
      6 N          60.4947   93.6356    0.4234 N.ar    1  UNL1       -0.2260
      7 C          59.9905   93.8370   -0.9749 C.ar    1  UNL1        0.1517
      8 C          61.1663   93.7785   -1.9045 C.ar    1  UNL1        0.0872
      9 C          61.2752   93.9109   -3.3947 C.ar    1  UNL1        0.0193
     10 C          62.6149   93.8057   -4.0610 C.ar    1  UNL1        0.0031
     11 C          63.8457   93.5680   -3.2372 C.ar    1  UNL1        0.0191
     12 C          63.7368   93.4356   -1.7471 C.ar    1  UNL1        0.0811
     13 N          62.3971   93.5409   -1.0807 N.ar    1  UNL1       -0.2921
     14 C          62.7599   91.9735    2.3474 C.3     1  UNL1        0.0079
     15 C          62.8942   93.2216    1.5262 C.3     1  UNL1        0.0573
     16 C          63.9406   94.2387    1.8732 C.3     1  UNL1        0.0079
     17 C          56.7413   95.5340   -2.4958 C.3     1  UNL1        0.0747
     18 C          55.7508   96.0372   -1.4880 C.3     1  UNL1        0.0369
     19 C          54.3218   96.2584   -1.8867 C.3     1  UNL1        0.0737
     20 N          53.8833   95.9763   -3.2932 N.3     1  UNL1       -0.2738
     21 C          54.8737   95.4731   -4.3010 C.3     1  UNL1        0.0737
     22 C          56.3028   95.2519   -3.9023 C.3     1  UNL1        0.0369
     23 C          52.4542   96.1976   -3.6918 C.3     1  UNL1        0.0576
     24 C          52.1103   96.4809   -5.1241 C.3     1  UNL1        0.0173
     25 C          51.3691   96.1355   -2.6581 C.3     1  UNL1        0.0173
@<TRIPOS>BOND
     1    14    15    1
     2    15    16    1
     3    15     5    1
     4     5     6   ar
     5     6     7   ar
     6     7     1    1
     7     1     2    2
     8     1     3   am
     9     3    17    1
    10    17    18    1
    11    18    19    1
    12    19    20    1
    13    20    23    1
    14    23    24    1
    15    23    25    1
    16    20    21    1
    17    21    22    1
    18     7     8   ar
    19     8     9   ar
    20     9    10   ar
    21    10    11   ar
    22    11    12   ar
    23    12    13   ar
    24    13     5   ar
    25    22    17    1
    26    13     8   ar
    27     3     4    1
@<TRIPOS>MOLECULE
*****
 25 27 0 0 0
SMALL
GASTEIGER

@<TRIPOS>ATOM
      1 C          62.1204   93.0941    0.0154 C.2     1  UNL1        0.2650
      2 O          61.1123   92.0706   -0.4158 O.2     1  UNL1       -0.2684
      3 N          62.2787   93.4243    1.4701 N.am    1  UNL1       -0.3011
      4 H          62.9404   94.0961    1.7531 H       1  UNL1        0.1497
      5 C          63.9306   94.4746   -3.1282 C.ar    1  UNL1        0.1239
      6 N          62.9078   93.5805   -2.4923 N.ar    1  UNL1       -0.2260
      7 C          62.9702   93.7874   -1.0079 C.ar    1  UNL1        0.1517
      8 C          64.0316   94.8093   -0.7265 C.ar    1  UNL1        0.0872
      9 C          64.5342   95.4079    0.5537 C.ar    1  UNL1        0.0193
     10 C          65.6305   96.4312    0.5235 C.ar    1  UNL1        0.0031
     11 C          66.2241   96.8560   -0.7869 C.ar    1  UNL1        0.0191
     12 C          65.7214   96.2573   -2.0671 C.ar    1  UNL1        0.0811
     13 N          64.6252   95.2340   -2.0369 N.ar    1  UNL1       -0.2921
     14 C          63.7736   95.8108   -5.3509 C.3     1  UNL1        0.0079
     15 C          64.2099   94.5892   -4.5975 C.3     1  UNL1        0.0573
     16 C          64.9255   93.4824   -5.3135 C.3     1  UNL1        0.0079
     17 C          61.4289   92.7310    2.4934 C.3     1  UNL1        0.0747
     18 C          62.0383   91.7081    3.4056 C.3     1  UNL1        0.0369
     19 C          61.1885   91.0147    4.4289 C.3     1  UNL1        0.0737
     20 N          59.7294   91.3444    4.5399 N.3     1  UNL1       -0.2738
     21 C          59.1200   92.3673    3.6277 C.3     1  UNL1        0.0737
     22 C          59.9698   93.0606    2.6044 C.3     1  UNL1        0.0369
     23 C          58.8797   90.6510    5.5633 C.3     1  UNL1        0.0576
     24 C          57.3931   90.8515    5.5643 C.3     1  UNL1        0.0173
     25 C          59.5165   89.7570    6.5857 C.3     1  UNL1        0.0173
@<TRIPOS>BOND
     1    14    15    1
     2    15    16    1
     3    15     5    1
     4     5     6   ar
     5     6     7   ar
     6     7     1    1
     7     1     2    2
     8     1     3   am
     9     3    17    1
    10    17    18    1
    11    18    19    1
    12    19    20    1
    13    20    23    1
    14    23    24    1
    15    23    25    1
    16    20    21    1
    17    21    22    1
    18     7     8   ar
    19     8     9   ar
    20     9    10   ar
    21    10    11   ar
    22    11    12   ar
    23    12    13   ar
    24    13     5   ar
    25    22    17    1
    26    13     8   ar
    27     3     4    1
@<TRIPOS>MOLECULE
*****
 25 27 0 0 0
SMALL
GASTEIGER

@<TRIPOS>ATOM
      1 C          57.9364   94.9741   -2.2269 C.2     1  UNL1        0.2650
      2 O          58.4233   96.0954   -1.3577 O.2     1  UNL1       -0.2684
      3 N          58.5774   93.6210   -2.1347 N.am    1  UNL1       -0.3011
      4 H          58.2578   92.8850   -2.7051 H       1  UNL1        0.1497
      5 C          55.5405   95.4490   -5.2434 C.ar    1  UNL1        0.1239
      6 N          56.9020   95.1587   -4.6847 N.ar    1  UNL1       -0.2260
      7 C          56.8086   95.2058   -3.1884 C.ar    1  UNL1        0.1517
      8 C          55.3895   95.5253   -2.8222 C.ar    1  UNL1        0.0872
      9 C          54.7098   95.6988   -1.4964 C.ar    1  UNL1        0.0193
     10 C          53.2462   96.0226   -1.4407 C.ar    1  UNL1        0.0031
     11 C          52.4624   96.1729   -2.7108 C.ar    1  UNL1        0.0191
     12 C          53.1422   95.9994   -4.0366 C.ar    1  UNL1        0.0811
     13 N          54.6058   95.6756   -4.0923 N.ar    1  UNL1       -0.2921
     14 C          54.6414   96.7729   -7.2901 C.3     1  UNL1        0.0079
     15 C          55.1774   95.5033   -6.6978 C.3     1  UNL1        0.0573
     16 C          55.3504   94.2881   -7.5598 C.3     1  UNL1        0.0079
     17 C          59.7052   93.3893   -1.1732 C.3     1  UNL1        0.0747
     18 C          61.1241   93.5743   -1.6231 C.3     1  UNL1        0.0369
     19 C          62.2519   93.3426   -0.6616 C.3     1  UNL1        0.0737
     20 N          61.9607   92.9260    0.7496 N.3     1  UNL1       -0.2738
     21 C          60.5418   92.7410    1.1995 C.3     1  UNL1        0.0737
     22 C          59.4140   92.9727    0.2380 C.3     1  UNL1        0.0369
     23 C          63.0886   92.6943    1.7111 C.3     1  UNL1        0.0576
     24 C          64.3814   93.4363    1.5435 C.3     1  UNL1        0.0173
     25 C          62.9236   91.7206    2.8400 C.3     1  UNL1        0.0173
@<TRIPOS>BOND
     1    14    15    1
     2    15    16    1
     3    15     5    1
     4     5     6   ar
     5     6     7   ar
     6     7     1    1
     7     1     2    2
     8     1     3   am
     9     3    17    1
    10    17    18    1
    11    18    19    1
    12    19    20    1
    13    20    23    1
    14    23    24    1
    15    23    25    1
    16    20    21    1
    17    21    22    1
    18     7     8   ar
    19     8     9   ar
    20     9    10   ar
    21    10    11   ar
    22    11    12   ar
    23    12    13   ar
    24    13     5   ar
    25    22    17    1
    26    13     8   ar
    27     3     4    1
